[General]
cmdenv-express-mode = true
cmdenv-autoflush = true
cmdenv-status-frequency = 1s
**.cmdenv-log-level = info

ned-path = .
image-path = ../../images
network = way1

##########################################################
#            Simulation parameters                       #
##########################################################
debug-on-errors = true
print-undisposed = true

sim-time-limit = 800s

**.scalar-recording = true
**.vector-recording = true

**.debug = false
**.coreDebug = false

*.playgroundSizeX = 2500m
*.playgroundSizeY = 2500m
*.playgroundSizeZ = 50m


###################################66aed421411fe99f1692b32366ea5153d29c650d#######################
# Annotation parameters                                  #
##########################################################
*.annotations.draw = true


##########################################################
#            TraCIScenarioManager parameters             #
##########################################################
*.manager.updateInterval = 1s
*.manager.host = "localhost"
*.manager.port = 9999
*.manager.autoShutdown = true
*.manager.launchConfig = xmldoc("way1.launchd.xml")

##########################################################
#            11p specific parameters                     #
#                                                        #
#                    NIC-Settings                        #
##########################################################
*.connectionManager.sendDirect = true
*.connectionManager.maxInterfDist = 2600m
*.connectionManager.drawMaxIntfDist = false

*.**.nic.mac1609_4.useServiceChannel = false

*.**.nic.mac1609_4.txPower = 20mW
*.**.nic.mac1609_4.bitrate = 6Mbps
*.**.nic.phy80211p.sensitivity = -89dBm

*.**.nic.phy80211p.useThermalNoise = true
*.**.nic.phy80211p.thermalNoise = -110dBm

*.**.nic.phy80211p.decider = xmldoc("config.xml")
*.**.nic.phy80211p.analogueModels = xmldoc("config.xml")
*.**.nic.phy80211p.usePropagationDelay = true

##########################################################
#                    WaveAppLayer                        #
##########################################################
*.node[*].applType = "ART" 
*.node[*].appl.headerLength = 80 bit
*.node[*].appl.sendBeacons = false
*.node[*].appl.dataOnSch = false
*.node[*].appl.beaconInterval = 1s

##########################################################
# Obstacle parameters                                    #
##########################################################
*.obstacles.debug = false
*.obstacles.obstacles = xmldoc("config.xml", "//AnalogueModel[@type='SimpleObstacleShadowing']/obstacles")

##########################################################
#                      Mobility                          #
##########################################################
*.node[*].veinsmobilityType.debug = true
*.node[*].veinsmobility.x = 0
*.node[*].veinsmobility.y = 0
*.node[*].veinsmobility.z = 1.895

#*.node[*0].veinsmobility.accidentCount = 1
#*.node[*0].veinsmobility.accidentStart = 67s
#*.node[*0].veinsmobility.accidentDuration = 40s
#*.node[*1].veinsmobility.accidentCount = 1
#*.node[*1].veinsmobility.accidentStart = 67s
#*.node[*1].veinsmobility.accidentDuration = 40s

*.node[*0].veinsmobility.fakeAccidentCount = 1
*.node[*0].veinsmobility.fakeAccidentStart = 55s
*.node[*0].veinsmobility.fakeAccidentDuration = 40s
#*.node[*1].veinsmobility.fakeAccidentCount = 1
#*.node[*1].veinsmobility.fakeAccidentStart = 72s
#*.node[*1].veinsmobility.fakeAccidentDuration = 40s


[Config Default]

[Config WithBeaconing]
*.node[*].appl.sendBeacons = true

[Config WithChannelSwitching]
*.**.nic.mac1609_4.useServiceChannel = true
*.node[*].appl.dataOnSch = true
