<?xml version="1.0" encoding="UTF-8"?>

<!-- generated on Wed Oct 17 15:15:12 2018 by SUMO polyconvert Version 0.32.0
<?xml version="1.0" encoding="UTF-8"?>

<configuration xmlns:xsi="http://www.w3.org/2001/XMLSchema-instance" xsi:noNamespaceSchemaLocation="http://sumo.dlr.de/xsd/polyconvertConfiguration.xsd">

    <input>
        <net-file value="osm.net.xml"/>
        <osm-files value="osm_bbox.osm.xml"/>
        <osm.keep-full-type value="true"/>
        <type-file value="/home/veins/src/sumo-0.32.0/data/typemap/osmPolyconvert.typ.xml"/>
    </input>

    <output>
        <output-file value="/home/veins/2018-10-17-15-15-06/osm.poly.xml"/>
    </output>

    <processing>
        <poi-layer-offset value="5"/>
    </processing>

    <report>
        <verbose value="true"/>
    </report>

</configuration>
-->

<additional xmlns:xsi="http://www.w3.org/2001/XMLSchema-instance" xsi:noNamespaceSchemaLocation="http://sumo.dlr.de/xsd/additional_file.xsd">
    <location netOffset="-465123.61,-4602033.28" convBoundary="0.00,-0.00,4476.28,2130.78" origBoundary="-75.448121,41.569253,-75.364716,41.588447" projParameter="+proj=utm +zone=18 +ellps=WGS84 +datum=WGS84 +units=m +no_defs"/>

    <poly id="601417249" type="building.yes" color="255,230,230" fill="1" layer="-1.00" shape="589.50,1274.87 596.64,1269.27 607.35,1282.81 600.21,1288.42 589.50,1274.87"/>
    <poly id="601417250" type="building.yes" color="255,230,230" fill="1" layer="-1.00" shape="583.26,1239.61 587.86,1236.18 595.58,1246.43 590.99,1249.87 583.26,1239.61"/>
    <poi id="158393146" type="population.2093" color="51,128,255" layer="4.00" x="845.95" y="1233.24"/>
</additional>
