<?xml version="1.0" encoding="UTF-8"?>
<!-- generated on 2018-10-17 15:15:13.285654 by $Id$ via randomTrips.py
  options: 
-->
<routes xmlns:xsi="http://www.w3.org/2001/XMLSchema-instance" xsi:noNamespaceSchemaLocation="http://sumo.dlr.de/xsd/routes_file.xsd">
    <vType id="passenger" speedFactor="normc(1.00,0.10,0.20,2.00)" vClass="passenger">
    </vType>
    <trip id="veh0" depart="0.00" departLane="best" from="10844412#1" to="-10843909#0" type="passenger"/>
    <trip id="veh1" depart="14.81" departLane="best" from="-10887764#1" to="-10885963#3" type="passenger"/>
    <trip id="veh2" depart="29.62" departLane="best" from="10885963#0" to="10886775#4" type="passenger"/>
    <trip id="veh3" depart="44.42" departLane="best" from="10890403" to="-10844412#0" type="passenger"/>
    <trip id="veh4" depart="59.23" departLane="best" from="-10891829#0" to="-10843909#0" type="passenger"/>
    <trip id="veh5" depart="74.04" departLane="best" from="-10886775#4" to="10844412#1" type="passenger"/>
    <trip id="veh6" depart="88.85" departLane="best" from="-10843909#3" to="-10885963#0" type="passenger"/>
    <trip id="veh7" depart="103.66" departLane="best" from="10846208" to="10846363#1" type="passenger"/>
    <trip id="veh8" depart="118.46" departLane="best" from="-10886775#4" to="10885963#1" type="passenger"/>
    <trip id="veh9" depart="133.27" departLane="best" from="10885963#5" to="-10843909#0" type="passenger"/>
    <trip id="veh10" depart="148.08" departLane="best" from="10885963#5" to="10886775#4" type="passenger"/>
    <trip id="veh11" depart="162.89" departLane="best" from="10891617#3" to="-10890403" type="passenger"/>
    <trip id="veh12" depart="177.70" departLane="best" from="-10846363#1" to="-10846208" type="passenger"/>
    <trip id="veh13" depart="192.50" departLane="best" from="10886775#3" to="10885963#3" type="passenger"/>
    <trip id="veh14" depart="207.31" departLane="best" from="10885963#5" to="10887764#0" type="passenger"/>
    <trip id="veh15" depart="222.12" departLane="best" from="-10891617#0" to="10846363#1" type="passenger"/>
    <trip id="veh16" depart="236.93" departLane="best" from="10888123#1" to="10884901" type="passenger"/>
    <trip id="veh17" depart="251.74" departLane="best" from="10846518" to="-10843909#0" type="passenger"/>
    <trip id="veh18" depart="266.54" departLane="best" from="-10886775#4" to="-10888123#0" type="passenger"/>
    <trip id="veh19" depart="281.35" departLane="best" from="-10846363#1" to="-10885963#4" type="passenger"/>
    <trip id="veh20" depart="296.16" departLane="best" from="-10846363#1" to="-10886775#3" type="passenger"/>
    <trip id="veh21" depart="310.97" departLane="best" from="10844412#0" to="-10890403" type="passenger"/>
    <trip id="veh22" depart="325.78" departLane="best" from="-10890107#1" to="-10885963#1" type="passenger"/>
    <trip id="veh23" depart="340.58" departLane="best" from="-10887764#1" to="10892128" type="passenger"/>
    <trip id="veh24" depart="355.39" departLane="best" from="-10886775#1" to="10887764#0" type="passenger"/>
    <trip id="veh25" depart="370.20" departLane="best" from="-10886775#0" to="-10891617#0" type="passenger"/>
    <trip id="veh26" depart="385.01" departLane="best" from="10843909#0" to="10886775#4" type="passenger"/>
    <trip id="veh27" depart="399.82" departLane="best" from="-10886775#4" to="-10843909#0" type="passenger"/>
    <trip id="veh28" depart="414.62" departLane="best" from="-10889617" to="-10886775#1" type="passenger"/>
    <trip id="veh29" depart="429.43" departLane="best" from="-10886775#4" to="10892128" type="passenger"/>
    <trip id="veh30" depart="444.24" departLane="best" from="10846208" to="-10891617#2" type="passenger"/>
    <trip id="veh31" depart="459.05" departLane="best" from="10890403" to="10843909#1" type="passenger"/>
    <trip id="veh32" depart="473.86" departLane="best" from="-10887764#1" to="-10885963#5" type="passenger"/>
    <trip id="veh33" depart="488.66" departLane="best" from="10843909#0" to="-10886775#1" type="passenger"/>
    <trip id="veh34" depart="503.47" departLane="best" from="10843909#0" to="10891829#2" type="passenger"/>
    <trip id="veh35" depart="518.28" departLane="best" from="-10891617#3" to="-10885963#2" type="passenger"/>
    <trip id="veh36" depart="533.09" departLane="best" from="10891829#3" to="10846363#0" type="passenger"/>
    <trip id="veh37" depart="547.89" departLane="best" from="-10846363#1" to="-10843909#1" type="passenger"/>
    <trip id="veh38" depart="562.70" departLane="best" from="-10884901" to="10885963#5" type="passenger"/>
    <trip id="veh39" depart="577.51" departLane="best" from="10885963#3" to="-10891829#0" type="passenger"/>
    <trip id="veh40" depart="592.32" departLane="best" from="-10846363#1" to="-10891617#1" type="passenger"/>
    <trip id="veh41" depart="607.13" departLane="best" from="10891829#3" to="10846363#1" type="passenger"/>
    <trip id="veh42" depart="621.93" departLane="best" from="-10843909#2" to="10887764#0" type="passenger"/>
    <trip id="veh43" depart="636.74" departLane="best" from="10846208" to="10846363#1" type="passenger"/>
    <trip id="veh44" depart="651.55" departLane="best" from="-10887764#1" to="10886775#1" type="passenger"/>
    <trip id="veh45" depart="666.36" departLane="best" from="-10885963#1" to="-10891829#1" type="passenger"/>
    <trip id="veh46" depart="681.17" departLane="best" from="-10892128" to="10892677" type="passenger"/>
    <trip id="veh47" depart="695.97" departLane="best" from="10890107#1" to="-10886775#1" type="passenger"/>
    <trip id="veh48" depart="710.78" departLane="best" from="-10892677" to="-10885963#0" type="passenger"/>
    <trip id="veh49" depart="725.59" departLane="best" from="10890403" to="10891617#4" type="passenger"/>
    <trip id="veh50" depart="740.40" departLane="best" from="10843909#2" to="-10884901" type="passenger"/>
    <trip id="veh51" depart="755.21" departLane="best" from="10885963#0" to="10846363#1" type="passenger"/>
    <trip id="veh52" depart="770.01" departLane="best" from="10885963#2" to="10846363#1" type="passenger"/>
    <trip id="veh53" depart="784.82" departLane="best" from="-10843909#1" to="-10890403" type="passenger"/>
    <trip id="veh54" depart="799.63" departLane="best" from="-10843909#3" to="10892128" type="passenger"/>
    <trip id="veh55" depart="814.44" departLane="best" from="-10889617" to="-10843909#2" type="passenger"/>
    <trip id="veh56" depart="829.25" departLane="best" from="-10846363#1" to="10843909#4" type="passenger"/>
    <trip id="veh57" depart="844.05" departLane="best" from="-10846363#1" to="10888123#0" type="passenger"/>
    <trip id="veh58" depart="858.86" departLane="best" from="10885963#0" to="-10846208" type="passenger"/>
    <trip id="veh59" depart="873.67" departLane="best" from="-10892128" to="10846363#1" type="passenger"/>
    <trip id="veh60" depart="888.48" departLane="best" from="-10887764#1" to="10891617#4" type="passenger"/>
    <trip id="veh61" depart="903.29" departLane="best" from="-10891829#0" to="-10885963#1" type="passenger"/>
    <trip id="veh62" depart="918.09" departLane="best" from="-10892677" to="10887764#0" type="passenger"/>
    <trip id="veh63" depart="932.90" departLane="best" from="-10886775#4" to="-10890107#0" type="passenger"/>
    <trip id="veh64" depart="947.71" departLane="best" from="-10891829#2" to="10846363#0" type="passenger"/>
    <trip id="veh65" depart="962.52" departLane="best" from="-10886775#4" to="-10885963#2" type="passenger"/>
    <trip id="veh66" depart="977.33" departLane="best" from="-10846363#1" to="10886775#0" type="passenger"/>
    <trip id="veh67" depart="992.13" departLane="best" from="-10886775#4" to="10891829#3" type="passenger"/>
    <trip id="veh68" depart="1006.94" departLane="best" from="10888123#0" to="-10843909#3" type="passenger"/>
    <trip id="veh69" depart="1021.75" departLane="best" from="-10886775#4" to="-10846208" type="passenger"/>
    <trip id="veh70" depart="1036.56" departLane="best" from="10891617#1" to="10846518" type="passenger"/>
    <trip id="veh71" depart="1051.37" departLane="best" from="-10892128" to="10889617" type="passenger"/>
    <trip id="veh72" depart="1066.17" departLane="best" from="10885963#5" to="-10885963#0" type="passenger"/>
    <trip id="veh73" depart="1080.98" departLane="best" from="-10846363#1" to="-10891829#1" type="passenger"/>
    <trip id="veh74" depart="1095.79" departLane="best" from="10885963#0" to="10886775#4" type="passenger"/>
    <trip id="veh75" depart="1110.60" departLane="best" from="10891829#2" to="-10846208" type="passenger"/>
    <trip id="veh76" depart="1125.41" departLane="best" from="-10891617#3" to="-10890403" type="passenger"/>
    <trip id="veh77" depart="1140.21" departLane="best" from="-10887764#1" to="10892128" type="passenger"/>
    <trip id="veh78" depart="1155.02" departLane="best" from="10843909#0" to="-10843909#1" type="passenger"/>
    <trip id="veh79" depart="1169.83" departLane="best" from="10891617#4" to="10892128" type="passenger"/>
    <trip id="veh80" depart="1184.64" departLane="best" from="10886775#3" to="-10885963#0" type="passenger"/>
    <trip id="veh81" depart="1199.45" departLane="best" from="-10892128" to="-10885963#2" type="passenger"/>
    <trip id="veh82" depart="1214.25" departLane="best" from="-10887764#1" to="10889617" type="passenger"/>
    <trip id="veh83" depart="1229.06" departLane="best" from="-10892128" to="-10891829#0" type="passenger"/>
    <trip id="veh84" depart="1243.87" departLane="best" from="10891617#3" to="10892677" type="passenger"/>
    <trip id="veh85" depart="1258.68" departLane="best" from="10843909#0" to="10887764#0" type="passenger"/>
    <trip id="veh86" depart="1273.49" departLane="best" from="-10892677" to="10887764#0" type="passenger"/>
    <trip id="veh87" depart="1288.29" departLane="best" from="-10846363#1" to="10885963#1" type="passenger"/>
    <trip id="veh88" depart="1303.10" departLane="best" from="-10892677" to="10891617#2" type="passenger"/>
    <trip id="veh89" depart="1317.91" departLane="best" from="-10886775#0" to="10892677" type="passenger"/>
    <trip id="veh90" depart="1332.72" departLane="best" from="-10846363#1" to="-10885963#0" type="passenger"/>
    <trip id="veh91" depart="1347.53" departLane="best" from="10843909#1" to="10886775#4" type="passenger"/>
    <trip id="veh92" depart="1362.33" departLane="best" from="-10886775#4" to="-10846208" type="passenger"/>
    <trip id="veh93" depart="1377.14" departLane="best" from="10843909#1" to="10885963#4" type="passenger"/>
    <trip id="veh94" depart="1391.95" departLane="best" from="-10891829#0" to="10885963#1" type="passenger"/>
    <trip id="veh95" depart="1406.76" departLane="best" from="-10892677" to="10892128" type="passenger"/>
    <trip id="veh96" depart="1421.57" departLane="best" from="-10886775#4" to="10887764#0" type="passenger"/>
    <trip id="veh97" depart="1436.37" departLane="best" from="-10886775#4" to="-10891617#2" type="passenger"/>
    <trip id="veh98" depart="1451.18" departLane="best" from="10846208" to="-10888123#1" type="passenger"/>
    <trip id="veh99" depart="1465.99" departLane="best" from="-10889617" to="10887764#0" type="passenger"/>
    <trip id="veh100" depart="1480.80" departLane="best" from="-10846363#1" to="10843909#1" type="passenger"/>
    <trip id="veh101" depart="1495.60" departLane="best" from="10891829#3" to="10892677" type="passenger"/>
    <trip id="veh102" depart="1510.41" departLane="best" from="-10846363#1" to="-10885963#2" type="passenger"/>
    <trip id="veh103" depart="1525.22" departLane="best" from="-10887764#1" to="10892128" type="passenger"/>
    <trip id="veh104" depart="1540.03" departLane="best" from="10890403" to="10891617#4" type="passenger"/>
    <trip id="veh105" depart="1554.84" departLane="best" from="-10890107#1" to="-10885963#0" type="passenger"/>
    <trip id="veh106" depart="1569.64" departLane="best" from="10886775#2" to="10886775#4" type="passenger"/>
    <trip id="veh107" depart="1584.45" departLane="best" from="10843909#3" to="10892677" type="passenger"/>
    <trip id="veh108" depart="1599.26" departLane="best" from="10846208" to="-10843909#0" type="passenger"/>
    <trip id="veh109" depart="1614.07" departLane="best" from="10846208" to="10892128" type="passenger"/>
    <trip id="veh110" depart="1628.88" departLane="best" from="-10884901" to="10846363#1" type="passenger"/>
    <trip id="veh111" depart="1643.68" departLane="best" from="-10887764#1" to="10885963#3" type="passenger"/>
    <trip id="veh112" depart="1658.49" departLane="best" from="10884901" to="-10885963#0" type="passenger"/>
    <trip id="veh113" depart="1673.30" departLane="best" from="10886775#3" to="-10844412#0" type="passenger"/>
    <trip id="veh114" depart="1688.11" departLane="best" from="10885963#0" to="10846363#1" type="passenger"/>
    <trip id="veh115" depart="1702.92" departLane="best" from="-10891829#1" to="-10843909#0" type="passenger"/>
    <trip id="veh116" depart="1717.72" departLane="best" from="-10846363#1" to="10891829#1" type="passenger"/>
    <trip id="veh117" depart="1732.53" departLane="best" from="10890403" to="10846363#1" type="passenger"/>
    <trip id="veh118" depart="1747.34" departLane="best" from="10890403" to="-10885963#1" type="passenger"/>
    <trip id="veh119" depart="1762.15" departLane="best" from="-10887764#1" to="-10846208" type="passenger"/>
    <trip id="veh120" depart="1776.96" departLane="best" from="10885963#2" to="10891829#1" type="passenger"/>
    <trip id="veh121" depart="1791.76" departLane="best" from="-10891617#3" to="10885963#5" type="passenger"/>
    <trip id="veh122" depart="1806.57" departLane="best" from="-10885963#5" to="10892128" type="passenger"/>
    <trip id="veh123" depart="1821.38" departLane="best" from="10888123#1" to="10892677" type="passenger"/>
    <trip id="veh124" depart="1836.19" departLane="best" from="-10843909#3" to="10887764#0" type="passenger"/>
    <trip id="veh125" depart="1851.00" departLane="best" from="-10889617" to="10892128" type="passenger"/>
    <trip id="veh126" depart="1865.80" departLane="best" from="10885963#4" to="10891617#3" type="passenger"/>
    <trip id="veh127" depart="1880.61" departLane="best" from="-10886775#4" to="10889617" type="passenger"/>
    <trip id="veh128" depart="1895.42" departLane="best" from="-10892128" to="-10888123#1" type="passenger"/>
    <trip id="veh129" depart="1910.23" departLane="best" from="-10843909#3" to="-10885963#0" type="passenger"/>
    <trip id="veh130" depart="1925.04" departLane="best" from="10844412#1" to="-10891617#3" type="passenger"/>
    <trip id="veh131" depart="1939.84" departLane="best" from="10891829#1" to="10846363#1" type="passenger"/>
    <trip id="veh132" depart="1954.65" departLane="best" from="10891617#4" to="-10885963#0" type="passenger"/>
    <trip id="veh133" depart="1969.46" departLane="best" from="10891617#3" to="-10886775#1" type="passenger"/>
    <trip id="veh134" depart="1984.27" departLane="best" from="10885963#0" to="-10890107#0" type="passenger"/>
    <trip id="veh135" depart="1999.08" departLane="best" from="10843909#2" to="10846363#0" type="passenger"/>
    <trip id="veh136" depart="2013.88" departLane="best" from="-10887764#1" to="10886775#4" type="passenger"/>
    <trip id="veh137" depart="2028.69" departLane="best" from="-10843909#1" to="10892128" type="passenger"/>
    <trip id="veh138" depart="2043.50" departLane="best" from="-10892677" to="10887764#0" type="passenger"/>
    <trip id="veh139" depart="2058.31" departLane="best" from="10885963#0" to="10886775#4" type="passenger"/>
    <trip id="veh140" depart="2073.12" departLane="best" from="-10890107#1" to="-10843909#3" type="passenger"/>
    <trip id="veh141" depart="2087.92" departLane="best" from="10884901" to="-10888123#1" type="passenger"/>
    <trip id="veh142" depart="2102.73" departLane="best" from="-10891617#3" to="-10888123#0" type="passenger"/>
    <trip id="veh143" depart="2117.54" departLane="best" from="-10885963#2" to="-10891829#0" type="passenger"/>
    <trip id="veh144" depart="2132.35" departLane="best" from="10891617#1" to="10886775#4" type="passenger"/>
    <trip id="veh145" depart="2147.16" departLane="best" from="-10888123#1" to="10846363#1" type="passenger"/>
    <trip id="veh146" depart="2161.96" departLane="best" from="10846208" to="10843909#2" type="passenger"/>
    <trip id="veh147" depart="2176.77" departLane="best" from="-10891829#2" to="-10885963#2" type="passenger"/>
    <trip id="veh148" depart="2191.58" departLane="best" from="10885963#3" to="-10885963#0" type="passenger"/>
    <trip id="veh149" depart="2206.39" departLane="best" from="-10846363#1" to="10846363#0" type="passenger"/>
    <trip id="veh150" depart="2221.20" departLane="best" from="10844412#0" to="-10890403" type="passenger"/>
    <trip id="veh151" depart="2236.00" departLane="best" from="10886775#0" to="10887764#0" type="passenger"/>
    <trip id="veh152" depart="2250.81" departLane="best" from="-10886775#4" to="-10843909#0" type="passenger"/>
    <trip id="veh153" depart="2265.62" departLane="best" from="-10887764#1" to="10843909#3" type="passenger"/>
    <trip id="veh154" depart="2280.43" departLane="best" from="-10891617#4" to="10886775#0" type="passenger"/>
    <trip id="veh155" depart="2295.24" departLane="best" from="-10886775#3" to="10886775#4" type="passenger"/>
    <trip id="veh156" depart="2310.04" departLane="best" from="-10892128" to="-10885963#5" type="passenger"/>
    <trip id="veh157" depart="2324.85" departLane="best" from="10846208" to="-10843909#0" type="passenger"/>
    <trip id="veh158" depart="2339.66" departLane="best" from="10885963#0" to="10888123#1" type="passenger"/>
    <trip id="veh159" depart="2354.47" departLane="best" from="-10886775#1" to="10892677" type="passenger"/>
    <trip id="veh160" depart="2369.28" departLane="best" from="-10892677" to="-10843909#1" type="passenger"/>
    <trip id="veh161" depart="2384.08" departLane="best" from="-10887764#1" to="10891617#1" type="passenger"/>
    <trip id="veh162" depart="2398.89" departLane="best" from="-10892128" to="10889617" type="passenger"/>
    <trip id="veh163" depart="2413.70" departLane="best" from="10843909#1" to="10892128" type="passenger"/>
    <trip id="veh164" depart="2428.51" departLane="best" from="10886775#1" to="10846363#1" type="passenger"/>
    <trip id="veh165" depart="2443.32" departLane="best" from="10890403" to="10887764#0" type="passenger"/>
    <trip id="veh166" depart="2458.12" departLane="best" from="-10892128" to="-10886775#0" type="passenger"/>
    <trip id="veh167" depart="2472.93" departLane="best" from="-10887764#1" to="10886775#0" type="passenger"/>
    <trip id="veh168" depart="2487.74" departLane="best" from="10885963#0" to="10846363#1" type="passenger"/>
    <trip id="veh169" depart="2502.55" departLane="best" from="-10846363#1" to="-10886775#3" type="passenger"/>
    <trip id="veh170" depart="2517.35" departLane="best" from="-10887764#1" to="-10890107#1" type="passenger"/>
    <trip id="veh171" depart="2532.16" departLane="best" from="10846518" to="-10843909#2" type="passenger"/>
    <trip id="veh172" depart="2546.97" departLane="best" from="-10891617#4" to="10846363#1" type="passenger"/>
    <trip id="veh173" depart="2561.78" departLane="best" from="-10891617#4" to="-10885963#1" type="passenger"/>
    <trip id="veh174" depart="2576.59" departLane="best" from="-10891829#0" to="10891829#3" type="passenger"/>
    <trip id="veh175" depart="2591.39" departLane="best" from="10843909#0" to="10886775#4" type="passenger"/>
    <trip id="veh176" depart="2606.20" departLane="best" from="-10891617#1" to="-10843909#0" type="passenger"/>
    <trip id="veh177" depart="2621.01" departLane="best" from="-10889617" to="10887764#0" type="passenger"/>
    <trip id="veh178" depart="2635.82" departLane="best" from="10888123#0" to="10892128" type="passenger"/>
    <trip id="veh179" depart="2650.63" departLane="best" from="-10891829#0" to="10887764#0" type="passenger"/>
    <trip id="veh180" depart="2665.43" departLane="best" from="-10886775#4" to="-10885963#2" type="passenger"/>
    <trip id="veh181" depart="2680.24" departLane="best" from="-10891829#2" to="-10843909#0" type="passenger"/>
    <trip id="veh182" depart="2695.05" departLane="best" from="-10889617" to="10886775#4" type="passenger"/>
    <trip id="veh183" depart="2709.86" departLane="best" from="-10891617#3" to="-10885963#0" type="passenger"/>
    <trip id="veh184" depart="2724.67" departLane="best" from="-10892128" to="-10846208" type="passenger"/>
    <trip id="veh185" depart="2739.47" departLane="best" from="10843909#4" to="-10843909#0" type="passenger"/>
    <trip id="veh186" depart="2754.28" departLane="best" from="-10891617#2" to="10846363#1" type="passenger"/>
    <trip id="veh187" depart="2769.09" departLane="best" from="-10885963#3" to="10843909#1" type="passenger"/>
    <trip id="veh188" depart="2783.90" departLane="best" from="-10846363#0" to="-10891617#0" type="passenger"/>
    <trip id="veh189" depart="2798.71" departLane="best" from="-10886775#4" to="-10890403" type="passenger"/>
    <trip id="veh190" depart="2813.51" departLane="best" from="10885963#0" to="-10891617#0" type="passenger"/>
    <trip id="veh191" depart="2828.32" departLane="best" from="10885963#0" to="10890107#1" type="passenger"/>
    <trip id="veh192" depart="2843.13" departLane="best" from="-10887764#1" to="-10843909#4" type="passenger"/>
    <trip id="veh193" depart="2857.94" departLane="best" from="-10843909#3" to="10846363#1" type="passenger"/>
    <trip id="veh194" depart="2872.75" departLane="best" from="10891829#3" to="-10890403" type="passenger"/>
    <trip id="veh195" depart="2887.55" departLane="best" from="10846208" to="10889617" type="passenger"/>
    <trip id="veh196" depart="2902.36" departLane="best" from="10846208" to="10887764#0" type="passenger"/>
    <trip id="veh197" depart="2917.17" departLane="best" from="10891617#2" to="-10885963#0" type="passenger"/>
    <trip id="veh198" depart="2931.98" departLane="best" from="-10885963#2" to="10886775#4" type="passenger"/>
    <trip id="veh199" depart="2946.79" departLane="best" from="10843909#0" to="-10885963#2" type="passenger"/>
    <trip id="veh200" depart="2961.59" departLane="best" from="10885963#0" to="-10846208" type="passenger"/>
    <trip id="veh201" depart="2976.40" departLane="best" from="10886775#0" to="10892677" type="passenger"/>
    <trip id="veh202" depart="2991.21" departLane="best" from="-10884901" to="-10843909#0" type="passenger"/>
    <trip id="veh203" depart="3006.02" departLane="best" from="-10889617" to="10886775#4" type="passenger"/>
    <trip id="veh204" depart="3020.83" departLane="best" from="10846208" to="10885963#5" type="passenger"/>
    <trip id="veh205" depart="3035.63" departLane="best" from="10886775#3" to="10885963#2" type="passenger"/>
    <trip id="veh206" depart="3050.44" departLane="best" from="-10891829#1" to="-10891617#0" type="passenger"/>
    <trip id="veh207" depart="3065.25" departLane="best" from="-10892677" to="-10890403" type="passenger"/>
    <trip id="veh208" depart="3080.06" departLane="best" from="10886775#3" to="10889617" type="passenger"/>
    <trip id="veh209" depart="3094.87" departLane="best" from="-10884901" to="10892677" type="passenger"/>
    <trip id="veh210" depart="3109.67" departLane="best" from="10844412#0" to="10890107#1" type="passenger"/>
    <trip id="veh211" depart="3124.48" departLane="best" from="10885963#0" to="10892677" type="passenger"/>
    <trip id="veh212" depart="3139.29" departLane="best" from="-10887764#1" to="10889617" type="passenger"/>
    <trip id="veh213" depart="3154.10" departLane="best" from="-10891829#2" to="10887764#0" type="passenger"/>
    <trip id="veh214" depart="3168.91" departLane="best" from="-10887764#1" to="10891617#1" type="passenger"/>
    <trip id="veh215" depart="3183.71" departLane="best" from="-10892128" to="10885963#3" type="passenger"/>
    <trip id="veh216" depart="3198.52" departLane="best" from="-10891617#0" to="-10843909#0" type="passenger"/>
    <trip id="veh217" depart="3213.33" departLane="best" from="10886775#3" to="-10885963#0" type="passenger"/>
    <trip id="veh218" depart="3228.14" departLane="best" from="-10886775#4" to="10889617" type="passenger"/>
    <trip id="veh219" depart="3242.95" departLane="best" from="-10889617" to="10891829#1" type="passenger"/>
    <trip id="veh220" depart="3257.75" departLane="best" from="-10843909#2" to="10892128" type="passenger"/>
    <trip id="veh221" depart="3272.56" departLane="best" from="-10846363#1" to="10887764#0" type="passenger"/>
    <trip id="veh222" depart="3287.37" departLane="best" from="-10892128" to="10887764#0" type="passenger"/>
    <trip id="veh223" depart="3302.18" departLane="best" from="10846208" to="10886775#1" type="passenger"/>
    <trip id="veh224" depart="3316.99" departLane="best" from="-10892128" to="10889617" type="passenger"/>
    <trip id="veh225" depart="3331.79" departLane="best" from="-10846363#1" to="-10885963#2" type="passenger"/>
    <trip id="veh226" depart="3346.60" departLane="best" from="10846208" to="-10890107#0" type="passenger"/>
    <trip id="veh227" depart="3361.41" departLane="best" from="10843909#0" to="10843909#3" type="passenger"/>
    <trip id="veh228" depart="3376.22" departLane="best" from="-10892677" to="-10891829#0" type="passenger"/>
    <trip id="veh229" depart="3391.03" departLane="best" from="10885963#0" to="-10890403" type="passenger"/>
    <trip id="veh230" depart="3405.83" departLane="best" from="-10887764#1" to="-10846208" type="passenger"/>
    <trip id="veh231" depart="3420.64" departLane="best" from="-10886775#3" to="-10846208" type="passenger"/>
    <trip id="veh232" depart="3435.45" departLane="best" from="-10892677" to="10888123#0" type="passenger"/>
    <trip id="veh233" depart="3450.26" departLane="best" from="-10886775#2" to="-10885963#2" type="passenger"/>
    <trip id="veh234" depart="3465.07" departLane="best" from="-10892128" to="10887764#0" type="passenger"/>
    <trip id="veh235" depart="3479.87" departLane="best" from="10891829#1" to="10846363#1" type="passenger"/>
    <trip id="veh236" depart="3494.68" departLane="best" from="-10887764#1" to="-10846208" type="passenger"/>
    <trip id="veh237" depart="3509.49" departLane="best" from="-10886775#3" to="-10885963#3" type="passenger"/>
    <trip id="veh238" depart="3524.30" departLane="best" from="-10886775#2" to="-10843909#0" type="passenger"/>
    <trip id="veh239" depart="3539.10" departLane="best" from="-10892677" to="-10886775#2" type="passenger"/>
    <trip id="veh240" depart="3553.91" departLane="best" from="10891829#1" to="10846363#1" type="passenger"/>
    <trip id="veh241" depart="3568.72" departLane="best" from="10846363#0" to="-10846208" type="passenger"/>
    <trip id="veh242" depart="3583.53" departLane="best" from="-10892128" to="-10891829#2" type="passenger"/>
    <trip id="veh243" depart="3598.34" departLane="best" from="10886775#0" to="-10891617#3" type="passenger"/>
</routes>
