<?xml version="1.0" encoding="UTF-8"?>

<!-- generated on Wed Oct 17 15:15:12 2018 by SUMO netconvert Version 0.32.0
<?xml version="1.0" encoding="UTF-8"?>

<configuration xmlns:xsi="http://www.w3.org/2001/XMLSchema-instance" xsi:noNamespaceSchemaLocation="http://sumo.dlr.de/xsd/netconvertConfiguration.xsd">

    <input>
        <type-files value="/home/veins/src/sumo-0.32.0/data/typemap/osmNetconvert.typ.xml"/>
        <osm-files value="osm_bbox.osm.xml"/>
    </input>

    <output>
        <output-file value="/home/veins/2018-10-17-15-15-06/osm.net.xml"/>
        <output.street-names value="true"/>
        <output.original-names value="true"/>
    </output>

    <projection>
        <proj.utm value="true"/>
    </projection>

    <tls_building>
        <tls.discard-simple value="true"/>
        <tls.join value="true"/>
        <tls.guess-signals value="true"/>
        <tls.default-type value="actuated"/>
    </tls_building>

    <ramp_guessing>
        <ramps.guess value="true"/>
    </ramp_guessing>

    <processing>
        <geometry.remove value="true"/>
        <roundabouts.guess value="true"/>
        <junctions.join value="true"/>
        <junctions.corner-detail value="5"/>
    </processing>

    <report>
        <verbose value="true"/>
    </report>

</configuration>
-->

<net version="0.27" junctionCornerDetail="5" xmlns:xsi="http://www.w3.org/2001/XMLSchema-instance" xsi:noNamespaceSchemaLocation="http://sumo.dlr.de/xsd/net_file.xsd">

    <location netOffset="-465123.61,-4602033.28" convBoundary="0.00,0.00,2610.39,2130.78" origBoundary="-75.448121,41.569253,-75.364716,41.588447" projParameter="+proj=utm +zone=18 +ellps=WGS84 +datum=WGS84 +units=m +no_defs"/>

    <type id="highway.bridleway" priority="1" numLanes="1" speed="2.78" allow="pedestrian" oneway="1" width="2.00"/>
    <type id="highway.bus_guideway" priority="1" numLanes="1" speed="8.33" allow="bus" oneway="1"/>
    <type id="highway.cycleway" priority="1" numLanes="1" speed="5.56" allow="bicycle" oneway="0" width="1.00"/>
    <type id="highway.footway" priority="1" numLanes="1" speed="2.78" allow="pedestrian" oneway="1" width="2.00"/>
    <type id="highway.ford" priority="1" numLanes="1" speed="2.78" allow="army" oneway="0"/>
    <type id="highway.living_street" priority="3" numLanes="1" speed="2.78" disallow="tram rail_urban rail rail_electric ship" oneway="0"/>
    <type id="highway.motorway" priority="13" numLanes="2" speed="44.44" allow="private emergency authority army vip passenger hov taxi bus coach delivery truck trailer motorcycle evehicle custom1 custom2" oneway="1"/>
    <type id="highway.motorway_link" priority="12" numLanes="1" speed="22.22" allow="private emergency authority army vip passenger hov taxi bus coach delivery truck trailer motorcycle evehicle custom1 custom2" oneway="1"/>
    <type id="highway.path" priority="1" numLanes="1" speed="2.78" allow="bicycle pedestrian" oneway="1" width="2.00"/>
    <type id="highway.pedestrian" priority="1" numLanes="1" speed="2.78" allow="pedestrian" oneway="1" width="2.00"/>
    <type id="highway.primary" priority="9" numLanes="2" speed="27.78" disallow="tram rail_urban rail rail_electric ship" oneway="0"/>
    <type id="highway.primary_link" priority="8" numLanes="1" speed="22.22" disallow="tram rail_urban rail rail_electric ship" oneway="0"/>
    <type id="highway.raceway" priority="14" numLanes="2" speed="83.33" allow="vip" oneway="0"/>
    <type id="highway.residential" priority="4" numLanes="1" speed="13.89" disallow="tram rail_urban rail rail_electric ship" oneway="0"/>
    <type id="highway.secondary" priority="7" numLanes="2" speed="27.78" disallow="tram rail_urban rail rail_electric ship" oneway="0"/>
    <type id="highway.secondary_link" priority="6" numLanes="1" speed="22.22" disallow="tram rail_urban rail rail_electric ship" oneway="0"/>
    <type id="highway.service" priority="2" numLanes="1" speed="5.56" allow="delivery bicycle pedestrian" oneway="0"/>
    <type id="highway.services" priority="1" numLanes="1" speed="8.33" disallow="tram rail_urban rail rail_electric ship" oneway="0"/>
    <type id="highway.stairs" priority="1" numLanes="1" speed="1.39" allow="pedestrian" oneway="1" width="2.00"/>
    <type id="highway.step" priority="1" numLanes="1" speed="1.39" allow="pedestrian" oneway="1" width="2.00"/>
    <type id="highway.steps" priority="1" numLanes="1" speed="1.39" allow="pedestrian" oneway="1" width="2.00"/>
    <type id="highway.tertiary" priority="6" numLanes="1" speed="22.22" disallow="tram rail_urban rail rail_electric ship" oneway="0"/>
    <type id="highway.tertiary_link" priority="5" numLanes="1" speed="22.22" disallow="tram rail_urban rail rail_electric ship" oneway="0"/>
    <type id="highway.track" priority="1" numLanes="1" speed="5.56" disallow="tram rail_urban rail rail_electric ship" oneway="0"/>
    <type id="highway.trunk" priority="11" numLanes="2" speed="27.78" disallow="tram rail_urban rail rail_electric bicycle pedestrian ship" oneway="0"/>
    <type id="highway.trunk_link" priority="10" numLanes="1" speed="22.22" disallow="tram rail_urban rail rail_electric bicycle pedestrian ship" oneway="0"/>
    <type id="highway.unclassified" priority="5" numLanes="1" speed="13.89" disallow="tram rail_urban rail rail_electric ship" oneway="0"/>
    <type id="highway.unsurfaced" priority="1" numLanes="1" speed="8.33" disallow="tram rail_urban rail rail_electric ship" oneway="0"/>
    <type id="railway.light_rail" priority="15" numLanes="1" speed="27.78" allow="rail_urban" oneway="1"/>
    <type id="railway.preserved" priority="15" numLanes="1" speed="27.78" allow="rail" oneway="1"/>
    <type id="railway.rail" priority="15" numLanes="1" speed="83.33" allow="rail rail_electric" oneway="1"/>
    <type id="railway.subway" priority="15" numLanes="1" speed="27.78" allow="rail_urban" oneway="1"/>
    <type id="railway.tram" priority="15" numLanes="1" speed="13.89" allow="tram" oneway="1"/>

    <edge id=":4559298012_0" function="internal">
        <lane id=":4559298012_0_0" index="0" disallow="tram rail_urban rail rail_electric ship" speed="11.18" length="4.82" shape="846.03,2131.11 844.98,2132.16 844.08,2132.39 843.36,2131.82 842.80,2130.44"/>
    </edge>
    <edge id=":5716232690_0" function="internal">
        <lane id=":5716232690_0_0" index="0" disallow="tram rail_urban rail rail_electric ship" speed="13.89" length="4.82" shape="420.25,1061.14 419.20,1060.08 418.97,1059.19 419.54,1058.47 420.92,1057.91"/>
    </edge>
    <edge id=":96319337_0" function="internal">
        <lane id=":96319337_0_0" index="0" disallow="tram rail_urban rail rail_electric ship" speed="22.22" length="4.82" shape="-0.60,891.73 -1.45,890.51 -1.54,889.59 -0.85,888.97 0.60,888.65"/>
    </edge>
    <edge id=":96324498_0" function="internal">
        <lane id=":96324498_0_0" index="0" disallow="tram rail_urban rail rail_electric ship" speed="13.89" length="4.82" shape="2610.55,1409.38 2611.70,1410.32 2612.03,1411.19 2611.54,1411.97 2610.23,1412.67"/>
    </edge>
    <edge id=":96324629_0" function="internal">
        <lane id=":96324629_0_0" index="0" disallow="tram rail_urban rail rail_electric ship" speed="13.89" length="5.70" shape="924.88,1269.85 924.50,1268.14 923.82,1266.91 922.85,1266.14 921.57,1265.84"/>
    </edge>
    <edge id=":96324629_1" function="internal">
        <lane id=":96324629_1_0" index="0" disallow="tram rail_urban rail rail_electric ship" speed="13.89" length="11.13" shape="924.88,1269.85 924.96,1266.73 926.05,1264.54 928.15,1263.27 931.25,1262.94"/>
    </edge>
    <edge id=":96324629_2" function="internal">
        <lane id=":96324629_2_0" index="0" disallow="tram rail_urban rail rail_electric ship" speed="13.89" length="4.82" shape="924.88,1269.85 925.55,1268.52 926.32,1268.01 927.19,1268.33 928.16,1269.46"/>
    </edge>
    <edge id=":96324629_3" function="internal">
        <lane id=":96324629_3_0" index="0" disallow="tram rail_urban rail rail_electric ship" speed="13.89" length="5.19" shape="931.13,1266.24 929.68,1266.39 928.70,1266.98 928.19,1268.00 928.16,1269.46"/>
    </edge>
    <edge id=":96324629_4" function="internal">
        <lane id=":96324629_4_0" index="0" disallow="tram rail_urban rail rail_electric ship" speed="13.89" length="9.56" shape="931.13,1266.24 921.57,1265.84"/>
    </edge>
    <edge id=":96324629_5" function="internal">
        <lane id=":96324629_5_0" index="0" disallow="tram rail_urban rail rail_electric ship" speed="13.89" length="2.41" shape="931.13,1266.24 929.92,1265.37 929.54,1264.53"/>
    </edge>
    <edge id=":96324629_9" function="internal">
        <lane id=":96324629_9_0" index="0" speed="13.89" length="2.41" shape="929.54,1264.53 929.98,1263.72 931.25,1262.94"/>
    </edge>
    <edge id=":96324629_6" function="internal">
        <lane id=":96324629_6_0" index="0" disallow="tram rail_urban rail rail_electric ship" speed="13.89" length="9.53" shape="921.73,1262.54 931.25,1262.94"/>
    </edge>
    <edge id=":96324629_7" function="internal">
        <lane id=":96324629_7_0" index="0" disallow="tram rail_urban rail rail_electric ship" speed="13.89" length="4.90" shape="921.73,1262.54 924.25,1263.08 926.16,1264.41"/>
    </edge>
    <edge id=":96324629_8" function="internal">
        <lane id=":96324629_8_0" index="0" disallow="tram rail_urban rail rail_electric ship" speed="13.89" length="2.41" shape="921.73,1262.54 922.93,1263.43 923.30,1264.27"/>
    </edge>
    <edge id=":96324629_10" function="internal">
        <lane id=":96324629_10_0" index="0" speed="13.89" length="5.50" shape="926.16,1264.41 927.46,1266.54 928.16,1269.46"/>
    </edge>
    <edge id=":96324629_11" function="internal">
        <lane id=":96324629_11_0" index="0" speed="13.89" length="2.41" shape="923.30,1264.27 922.85,1265.08 921.57,1265.84"/>
    </edge>
    <edge id=":96324632_0" function="internal">
        <lane id=":96324632_0_0" index="0" disallow="tram rail_urban rail rail_electric ship" speed="13.89" length="9.34" shape="905.84,1265.08 896.50,1264.84"/>
    </edge>
    <edge id=":96324632_1" function="internal">
        <lane id=":96324632_1_0" index="0" disallow="tram rail_urban rail rail_electric ship" speed="13.89" length="4.92" shape="905.84,1265.08 903.29,1264.55 901.38,1263.25"/>
    </edge>
    <edge id=":96324632_2" function="internal">
        <lane id=":96324632_2_0" index="0" disallow="tram rail_urban rail rail_electric ship" speed="13.89" length="2.41" shape="905.84,1265.08 904.64,1264.20 904.27,1263.35"/>
    </edge>
    <edge id=":96324632_9" function="internal">
        <lane id=":96324632_9_0" index="0" speed="13.89" length="5.36" shape="901.38,1263.25 900.11,1261.17 899.48,1258.31"/>
    </edge>
    <edge id=":96324632_10" function="internal">
        <lane id=":96324632_10_0" index="0" speed="13.89" length="2.41" shape="904.27,1263.35 904.72,1262.55 906.00,1261.78"/>
    </edge>
    <edge id=":96324632_3" function="internal">
        <lane id=":96324632_3_0" index="0" disallow="tram rail_urban rail rail_electric ship" speed="13.89" length="5.50" shape="902.77,1258.00 903.10,1259.60 903.75,1260.77 904.71,1261.50 906.00,1261.78"/>
    </edge>
    <edge id=":96324632_4" function="internal">
        <lane id=":96324632_4_0" index="0" disallow="tram rail_urban rail rail_electric ship" speed="13.89" length="10.84" shape="902.77,1258.00 902.62,1261.01 901.52,1263.15 899.48,1264.43 896.50,1264.84"/>
    </edge>
    <edge id=":96324632_5" function="internal">
        <lane id=":96324632_5_0" index="0" disallow="tram rail_urban rail rail_electric ship" speed="13.89" length="4.82" shape="902.77,1258.00 902.06,1259.31 901.28,1259.79 900.42,1259.46 899.48,1258.31"/>
    </edge>
    <edge id=":96324632_6" function="internal">
        <lane id=":96324632_6_0" index="0" disallow="tram rail_urban rail rail_electric ship" speed="13.89" length="5.12" shape="896.52,1261.54 897.93,1261.34 898.90,1260.74 899.41,1259.73 899.48,1258.31"/>
    </edge>
    <edge id=":96324632_7" function="internal">
        <lane id=":96324632_7_0" index="0" disallow="tram rail_urban rail rail_electric ship" speed="13.89" length="9.48" shape="896.52,1261.54 906.00,1261.78"/>
    </edge>
    <edge id=":96324632_8" function="internal">
        <lane id=":96324632_8_0" index="0" disallow="tram rail_urban rail rail_electric ship" speed="13.89" length="2.41" shape="896.52,1261.54 897.75,1262.37 898.16,1263.20"/>
    </edge>
    <edge id=":96324632_11" function="internal">
        <lane id=":96324632_11_0" index="0" speed="13.89" length="2.41" shape="898.16,1263.20 897.74,1264.02 896.50,1264.84"/>
    </edge>
    <edge id=":96324637_0" function="internal">
        <lane id=":96324637_0_0" index="0" disallow="tram rail_urban rail rail_electric ship" speed="20.84" length="5.79" shape="813.18,1268.96 812.75,1267.23 812.01,1266.05 810.94,1265.43 809.56,1265.36"/>
    </edge>
    <edge id=":96324637_1" function="internal">
        <lane id=":96324637_1_0" index="0" disallow="tram rail_urban rail rail_electric ship" speed="27.78" length="10.43" shape="813.18,1268.96 811.83,1258.61"/>
        <lane id=":96324637_1_1" index="1" disallow="tram rail_urban rail rail_electric ship" speed="27.78" length="10.43" shape="816.45,1268.52 815.10,1258.19"/>
    </edge>
    <edge id=":96324637_3" function="internal">
        <lane id=":96324637_3_0" index="0" disallow="tram rail_urban rail rail_electric ship" speed="20.84" length="4.88" shape="816.45,1268.52 816.66,1265.22 817.57,1263.93"/>
    </edge>
    <edge id=":96324637_4" function="internal">
        <lane id=":96324637_4_0" index="0" disallow="tram rail_urban rail rail_electric ship" speed="27.78" length="2.41" shape="816.45,1268.52 817.10,1267.18 817.87,1266.66"/>
    </edge>
    <edge id=":96324637_18" function="internal">
        <lane id=":96324637_18_0" index="0" speed="20.84" length="9.22" shape="817.57,1263.93 818.31,1262.88 821.39,1261.48 825.91,1261.04"/>
    </edge>
    <edge id=":96324637_19" function="internal">
        <lane id=":96324637_19_0" index="0" speed="27.78" length="2.41" shape="817.87,1266.66 818.74,1266.96 819.72,1268.08"/>
    </edge>
    <edge id=":96324637_5" function="internal">
        <lane id=":96324637_5_0" index="0" disallow="tram rail_urban rail rail_electric ship" speed="20.84" length="5.18" shape="825.89,1264.34 824.45,1264.54 823.49,1265.15 823.01,1266.19 822.99,1267.63"/>
    </edge>
    <edge id=":96324637_6" function="internal">
        <lane id=":96324637_6_0" index="0" disallow="tram rail_urban rail rail_electric ship" speed="13.89" length="16.37" shape="825.89,1264.34 821.93,1264.39 817.71,1264.58 813.50,1264.91 809.56,1265.36"/>
    </edge>
    <edge id=":96324637_7" function="internal">
        <lane id=":96324637_7_0" index="0" disallow="tram rail_urban rail rail_electric ship" speed="20.84" length="13.61" shape="825.89,1264.34 821.45,1263.93 818.18,1262.77 816.06,1260.86 815.10,1258.19"/>
    </edge>
    <edge id=":96324637_8" function="internal">
        <lane id=":96324637_8_0" index="0" disallow="tram rail_urban rail rail_electric ship" speed="13.89" length="4.82" shape="825.89,1264.34 824.66,1263.51 824.25,1262.68 824.67,1261.86 825.91,1261.04"/>
    </edge>
    <edge id=":96324637_9" function="internal">
        <lane id=":96324637_9_0" index="0" disallow="tram rail_urban rail rail_electric ship" speed="20.84" length="6.25" shape="821.65,1257.37 822.09,1258.97 822.94,1260.11 824.22,1260.80 825.91,1261.04"/>
    </edge>
    <edge id=":96324637_10" function="internal">
        <lane id=":96324637_10_0" index="0" disallow="tram rail_urban rail rail_electric ship" speed="27.78" length="10.37" shape="821.65,1257.37 822.99,1267.63"/>
        <lane id=":96324637_10_1" index="1" disallow="tram rail_urban rail rail_electric ship" speed="27.78" length="10.37" shape="818.37,1257.78 819.72,1268.08"/>
    </edge>
    <edge id=":96324637_12" function="internal">
        <lane id=":96324637_12_0" index="0" disallow="tram rail_urban rail rail_electric ship" speed="20.84" length="4.43" shape="818.37,1257.78 818.12,1260.61 817.20,1261.91"/>
    </edge>
    <edge id=":96324637_13" function="internal">
        <lane id=":96324637_13_0" index="0" disallow="tram rail_urban rail rail_electric ship" speed="27.78" length="2.41" shape="818.37,1257.78 817.71,1259.11 816.94,1259.63"/>
    </edge>
    <edge id=":96324637_20" function="internal">
        <lane id=":96324637_20_0" index="0" speed="20.84" length="8.62" shape="817.20,1261.91 816.57,1262.81 813.71,1264.39 809.56,1265.36"/>
    </edge>
    <edge id=":96324637_21" function="internal">
        <lane id=":96324637_21_0" index="0" speed="27.78" length="2.41" shape="816.94,1259.63 816.07,1259.32 815.10,1258.19"/>
    </edge>
    <edge id=":96324637_14" function="internal">
        <lane id=":96324637_14_0" index="0" disallow="tram rail_urban rail rail_electric ship" speed="20.84" length="5.02" shape="809.12,1262.09 810.45,1261.71 811.34,1261.01 811.80,1259.97 811.83,1258.61"/>
    </edge>
    <edge id=":96324637_15" function="internal">
        <lane id=":96324637_15_0" index="0" disallow="tram rail_urban rail rail_electric ship" speed="13.89" length="16.84" shape="809.12,1262.09 813.13,1261.63 817.50,1261.30 821.87,1261.10 825.91,1261.04"/>
    </edge>
    <edge id=":96324637_16" function="internal">
        <lane id=":96324637_16_0" index="0" disallow="tram rail_urban rail rail_electric ship" speed="20.84" length="13.81" shape="809.12,1262.09 813.39,1261.97 816.58,1262.93 818.69,1264.96 819.72,1268.08"/>
    </edge>
    <edge id=":96324637_17" function="internal">
        <lane id=":96324637_17_0" index="0" disallow="tram rail_urban rail rail_electric ship" speed="13.89" length="4.82" shape="809.12,1262.09 810.46,1262.74 810.98,1263.50 810.68,1264.37 809.56,1265.36"/>
    </edge>
    <edge id=":96324644_0" function="internal">
        <lane id=":96324644_0_0" index="0" disallow="tram rail_urban rail rail_electric ship" speed="13.89" length="5.08" shape="735.72,1278.85 735.28,1277.52 734.52,1276.67 733.44,1276.32 732.04,1276.46"/>
    </edge>
    <edge id=":96324644_1" function="internal">
        <lane id=":96324644_1_0" index="0" disallow="tram rail_urban rail rail_electric ship" speed="13.89" length="9.68" shape="735.72,1278.85 734.11,1269.31"/>
    </edge>
    <edge id=":96324644_2" function="internal">
        <lane id=":96324644_2_0" index="0" disallow="tram rail_urban rail rail_electric ship" speed="13.89" length="5.43" shape="735.72,1278.85 735.62,1275.91 736.48,1273.69 736.56,1273.62"/>
    </edge>
    <edge id=":96324644_3" function="internal">
        <lane id=":96324644_3_0" index="0" disallow="tram rail_urban rail rail_electric ship" speed="13.89" length="2.41" shape="735.72,1278.85 736.32,1277.49 737.06,1276.94"/>
    </edge>
    <edge id=":96324644_16" function="internal">
        <lane id=":96324644_16_0" index="0" speed="13.89" length="5.16" shape="736.56,1273.62 738.30,1272.17 741.09,1271.37"/>
    </edge>
    <edge id=":96324644_17" function="internal">
        <lane id=":96324644_17_0" index="0" speed="13.89" length="2.41" shape="737.06,1276.94 737.94,1277.20 738.97,1278.28"/>
    </edge>
    <edge id=":96324644_4" function="internal">
        <lane id=":96324644_4_0" index="0" disallow="tram rail_urban rail rail_electric ship" speed="13.89" length="5.13" shape="741.54,1274.64 740.20,1275.03 739.33,1275.76 738.92,1276.85 738.97,1278.28"/>
    </edge>
    <edge id=":96324644_5" function="internal">
        <lane id=":96324644_5_0" index="0" disallow="tram rail_urban rail rail_electric ship" speed="13.89" length="9.67" shape="741.54,1274.64 738.69,1275.04 736.75,1275.36 734.83,1275.78 732.04,1276.46"/>
    </edge>
    <edge id=":96324644_6" function="internal">
        <lane id=":96324644_6_0" index="0" disallow="tram rail_urban rail rail_electric ship" speed="13.89" length="10.37" shape="741.54,1274.64 738.66,1274.64 736.46,1273.74 734.95,1271.97 734.11,1269.31"/>
    </edge>
    <edge id=":96324644_7" function="internal">
        <lane id=":96324644_7_0" index="0" disallow="tram rail_urban rail rail_electric ship" speed="13.89" length="4.82" shape="741.54,1274.64 740.20,1273.99 739.68,1273.23 739.98,1272.35 741.09,1271.37"/>
    </edge>
    <edge id=":96324644_8" function="internal">
        <lane id=":96324644_8_0" index="0" disallow="tram rail_urban rail rail_electric ship" speed="13.89" length="5.14" shape="737.37,1268.79 737.79,1270.08 738.54,1270.94 739.64,1271.37 741.09,1271.37"/>
    </edge>
    <edge id=":96324644_9" function="internal">
        <lane id=":96324644_9_0" index="0" disallow="tram rail_urban rail rail_electric ship" speed="13.89" length="9.63" shape="737.37,1268.79 738.97,1278.28"/>
    </edge>
    <edge id=":96324644_10" function="internal">
        <lane id=":96324644_10_0" index="0" disallow="tram rail_urban rail rail_electric ship" speed="13.89" length="5.15" shape="737.37,1268.79 737.40,1271.56 736.53,1273.76"/>
    </edge>
    <edge id=":96324644_11" function="internal">
        <lane id=":96324644_11_0" index="0" disallow="tram rail_urban rail rail_electric ship" speed="13.89" length="2.41" shape="737.37,1268.79 736.75,1270.14 736.00,1270.67"/>
    </edge>
    <edge id=":96324644_18" function="internal">
        <lane id=":96324644_18_0" index="0" speed="13.89" length="5.32" shape="736.53,1273.76 734.74,1275.40 732.04,1276.46"/>
    </edge>
    <edge id=":96324644_19" function="internal">
        <lane id=":96324644_19_0" index="0" speed="13.89" length="2.41" shape="736.00,1270.67 735.12,1270.40 734.11,1269.31"/>
    </edge>
    <edge id=":96324644_12" function="internal">
        <lane id=":96324644_12_0" index="0" disallow="tram rail_urban rail rail_electric ship" speed="13.89" length="5.46" shape="731.25,1273.25 732.69,1272.70 733.65,1271.85 734.12,1270.72 734.11,1269.31"/>
    </edge>
    <edge id=":96324644_13" function="internal">
        <lane id=":96324644_13_0" index="0" disallow="tram rail_urban rail rail_electric ship" speed="13.89" length="10.03" shape="731.25,1273.25 734.14,1272.55 736.13,1272.12 738.15,1271.78 741.09,1271.37"/>
    </edge>
    <edge id=":96324644_14" function="internal">
        <lane id=":96324644_14_0" index="0" disallow="tram rail_urban rail rail_electric ship" speed="13.89" length="10.67" shape="731.25,1273.25 734.19,1272.96 736.45,1273.70 738.05,1275.48 738.97,1278.28"/>
    </edge>
    <edge id=":96324644_15" function="internal">
        <lane id=":96324644_15_0" index="0" disallow="tram rail_urban rail rail_electric ship" speed="13.89" length="4.82" shape="731.25,1273.25 732.65,1273.76 733.25,1274.46 733.05,1275.36 732.04,1276.46"/>
    </edge>
    <edge id=":96324650_0" function="internal">
        <lane id=":96324650_0_0" index="0" disallow="tram rail_urban rail rail_electric ship" speed="22.22" length="12.07" shape="505.53,1338.60 495.33,1332.13"/>
    </edge>
    <edge id=":96324650_1" function="internal">
        <lane id=":96324650_1_0" index="0" disallow="tram rail_urban rail rail_electric ship" speed="18.05" length="7.07" shape="505.53,1338.60 501.49,1335.37 500.80,1333.59"/>
    </edge>
    <edge id=":96324650_2" function="internal">
        <lane id=":96324650_2_0" index="0" disallow="tram rail_urban rail rail_electric ship" speed="22.22" length="2.41" shape="505.53,1338.60 504.92,1337.24 505.01,1336.32"/>
    </edge>
    <edge id=":96324650_9" function="internal">
        <lane id=":96324650_9_0" index="0" speed="18.05" length="9.18" shape="500.80,1333.59 500.42,1332.61 502.30,1330.34 507.15,1328.54"/>
    </edge>
    <edge id=":96324650_10" function="internal">
        <lane id=":96324650_10_0" index="0" speed="22.22" length="2.41" shape="505.01,1336.32 505.80,1335.84 507.28,1335.81"/>
    </edge>
    <edge id=":96324650_3" function="internal">
        <lane id=":96324650_3_0" index="0" disallow="tram rail_urban rail rail_electric ship" speed="18.05" length="6.57" shape="507.94,1331.74 505.98,1332.47 505.22,1333.39 505.65,1334.50 507.28,1335.81"/>
    </edge>
    <edge id=":96324650_4" function="internal">
        <lane id=":96324650_4_0" index="0" disallow="tram rail_urban rail rail_electric ship" speed="18.05" length="12.86" shape="507.94,1331.74 503.56,1332.65 500.00,1333.02 497.26,1332.85 495.33,1332.13"/>
    </edge>
    <edge id=":96324650_5" function="internal">
        <lane id=":96324650_5_0" index="0" disallow="tram rail_urban rail rail_electric ship" speed="13.89" length="4.82" shape="507.94,1331.74 506.54,1331.24 505.94,1330.53 506.15,1329.63 507.15,1328.54"/>
    </edge>
    <edge id=":96324650_6" function="internal">
        <lane id=":96324650_6_0" index="0" disallow="tram rail_urban rail rail_electric ship" speed="18.05" length="10.20" shape="497.12,1329.36 498.44,1329.76 500.55,1329.75 503.45,1329.35 507.15,1328.54"/>
    </edge>
    <edge id=":96324650_7" function="internal">
        <lane id=":96324650_7_0" index="0" disallow="tram rail_urban rail rail_electric ship" speed="22.22" length="12.03" shape="497.12,1329.36 507.28,1335.81"/>
    </edge>
    <edge id=":96324650_8" function="internal">
        <lane id=":96324650_8_0" index="0" disallow="tram rail_urban rail rail_electric ship" speed="22.22" length="2.41" shape="497.12,1329.36 497.71,1330.73 497.61,1331.65"/>
    </edge>
    <edge id=":96324650_11" function="internal">
        <lane id=":96324650_11_0" index="0" speed="22.22" length="2.41" shape="497.61,1331.65 496.81,1332.11 495.33,1332.13"/>
    </edge>
    <edge id=":96330890_0" function="internal">
        <lane id=":96330890_0_0" index="0" disallow="tram rail_urban rail rail_electric ship" speed="13.89" length="5.09" shape="940.13,1395.27 939.77,1393.91 939.06,1393.02 938.00,1392.61 936.59,1392.68"/>
    </edge>
    <edge id=":96330890_1" function="internal">
        <lane id=":96330890_1_0" index="0" disallow="tram rail_urban rail rail_electric ship" speed="13.89" length="9.55" shape="940.13,1395.27 938.92,1385.80"/>
    </edge>
    <edge id=":96330890_2" function="internal">
        <lane id=":96330890_2_0" index="0" disallow="tram rail_urban rail rail_electric ship" speed="13.89" length="2.41" shape="940.13,1395.27 940.80,1393.94 941.58,1393.44"/>
    </edge>
    <edge id=":96330890_9" function="internal">
        <lane id=":96330890_9_0" index="0" speed="13.89" length="2.41" shape="941.58,1393.44 942.44,1393.75 943.41,1394.89"/>
    </edge>
    <edge id=":96330890_3" function="internal">
        <lane id=":96330890_3_0" index="0" disallow="tram rail_urban rail rail_electric ship" speed="13.89" length="9.62" shape="942.19,1385.34 943.41,1394.89"/>
    </edge>
    <edge id=":96330890_4" function="internal">
        <lane id=":96330890_4_0" index="0" disallow="tram rail_urban rail rail_electric ship" speed="13.89" length="5.22" shape="942.19,1385.34 942.16,1388.09 941.21,1390.22 941.11,1390.31"/>
    </edge>
    <edge id=":96330890_5" function="internal">
        <lane id=":96330890_5_0" index="0" disallow="tram rail_urban rail rail_electric ship" speed="13.89" length="2.41" shape="942.19,1385.34 941.54,1386.68 940.78,1387.20"/>
    </edge>
    <edge id=":96330890_10" function="internal">
        <lane id=":96330890_10_0" index="0" speed="13.89" length="5.19" shape="941.11,1390.31 939.36,1391.75 936.59,1392.68"/>
    </edge>
    <edge id=":96330890_11" function="internal">
        <lane id=":96330890_11_0" index="0" speed="13.89" length="2.41" shape="940.78,1387.20 939.91,1386.91 938.92,1385.80"/>
    </edge>
    <edge id=":96330890_6" function="internal">
        <lane id=":96330890_6_0" index="0" disallow="tram rail_urban rail rail_electric ship" speed="13.89" length="5.28" shape="935.97,1389.43 937.42,1388.96 938.39,1388.20 938.89,1387.15 938.92,1385.80"/>
    </edge>
    <edge id=":96330890_7" function="internal">
        <lane id=":96330890_7_0" index="0" disallow="tram rail_urban rail rail_electric ship" speed="13.89" length="10.70" shape="935.97,1389.43 938.93,1389.30 941.15,1390.16 942.65,1392.02 943.41,1394.89"/>
    </edge>
    <edge id=":96330890_8" function="internal">
        <lane id=":96330890_8_0" index="0" disallow="tram rail_urban rail rail_electric ship" speed="13.89" length="4.82" shape="935.97,1389.43 937.34,1390.01 937.90,1390.74 937.65,1391.63 936.59,1392.68"/>
    </edge>
    <edge id=":96330895_0" function="internal">
        <lane id=":96330895_0_0" index="0" disallow="tram rail_urban rail rail_electric ship" speed="20.84" length="5.09" shape="832.83,1415.27 832.46,1413.95 831.75,1413.07 830.68,1412.60 829.26,1412.56"/>
    </edge>
    <edge id=":96330895_1" function="internal">
        <lane id=":96330895_1_0" index="0" disallow="tram rail_urban rail rail_electric ship" speed="27.78" length="9.75" shape="832.83,1415.27 831.58,1405.62"/>
        <lane id=":96330895_1_1" index="1" disallow="tram rail_urban rail rail_electric ship" speed="27.78" length="9.75" shape="836.10,1414.86 834.85,1405.18"/>
    </edge>
    <edge id=":96330895_3" function="internal">
        <lane id=":96330895_3_0" index="0" disallow="tram rail_urban rail rail_electric ship" speed="20.84" length="4.43" shape="836.10,1414.86 836.37,1412.06 837.29,1410.73"/>
    </edge>
    <edge id=":96330895_4" function="internal">
        <lane id=":96330895_4_0" index="0" disallow="tram rail_urban rail rail_electric ship" speed="27.78" length="2.41" shape="836.10,1414.86 836.77,1413.53 837.54,1413.02"/>
    </edge>
    <edge id=":96330895_18" function="internal">
        <lane id=":96330895_18_0" index="0" speed="20.84" length="8.81" shape="837.29,1410.73 837.93,1409.79 840.79,1408.06 844.95,1406.87"/>
    </edge>
    <edge id=":96330895_19" function="internal">
        <lane id=":96330895_19_0" index="0" speed="27.78" length="2.41" shape="837.54,1413.02 838.41,1413.32 839.38,1414.45"/>
    </edge>
    <edge id=":96330895_5" function="internal">