<?xml version="1.0" encoding="UTF-8"?>

<!-- generated on Wed Oct 17 15:15:13 2018 by SUMO duarouter Version 0.32.0
<?xml version="1.0" encoding="UTF-8"?>

<configuration xmlns:xsi="http://www.w3.org/2001/XMLSchema-instance" xsi:noNamespaceSchemaLocation="http://sumo.dlr.de/xsd/duarouterConfiguration.xsd">

    <input>
        <net-file value="osm.net.xml"/>
        <route-files value="osm.passenger.trips.xml"/>
    </input>

    <output>
        <output-file value="osm.passenger.rou.xml"/>
        <alternatives-output value="osm.passenger.rou.alt.xml"/>
    </output>

    <processing>
        <ignore-errors value="true"/>
    </processing>

    <time>
        <begin value="0"/>
        <end value="3600.0"/>
    </time>

    <report>
        <no-warnings value="true"/>
        <no-step-log value="true"/>
    </report>

</configuration>
-->

<routes xmlns:xsi="http://www.w3.org/2001/XMLSchema-instance" xsi:noNamespaceSchemaLocation="http://sumo.dlr.de/xsd/routes_file.xsd">
    <vType id="passenger" speedFactor="normc(1.00,0.10,0.20,2.00)" vClass="passenger"/>
    <vehicle id="veh0" type="passenger" depart="0.00" departLane="best">
        <route edges="10844412#1 -10843909#3 -10843909#2 -10843909#1 -10843909#0"/>
    </vehicle>
    <vehicle id="veh1" type="passenger" depart="14.81" departLane="best">
        <route edges="-10887764#1 -10885963#5 -10885963#4 -10885963#3"/>
    </vehicle>
    <vehicle id="veh2" type="passenger" depart="29.62" departLane="best">
        <route edges="10885963#0 10885963#1 10891617#0 10891617#1 10891617#2 10891617#3 10891617#4 10886775#3 10886775#4"/>
    </vehicle>
    <vehicle id="veh3" type="passenger" depart="44.42" departLane="best">
        <route edges="10890403 10885963#5 10886775#0 -10844412#0"/>
    </vehicle>
    <vehicle id="veh4" type="passenger" depart="59.23" departLane="best">
        <route edges="-10891829#0 10886775#1 -10843909#2 -10843909#1 -10843909#0"/>
    </vehicle>
    <vehicle id="veh5" type="passenger" depart="74.04" departLane="best">
        <route edges="-10886775#4 -10886775#3 -10886775#2 -10886775#1 10844412#1"/>
    </vehicle>
    <vehicle id="veh6" type="passenger" depart="88.85" departLane="best">
        <route edges="-10843909#3 10843909#3 10843909#4 -10885963#2 -10885963#1 -10885963#0"/>
    </vehicle>
    <vehicle id="veh7" type="passenger" depart="103.66" departLane="best">
        <route edges="10846208 10885963#4 10885963#5 10846363#0 10846363#1"/>
    </vehicle>
    <vehicle id="veh8" type="passenger" depart="118.46" departLane="best">
        <route edges="-10886775#4 -10886775#3 -10891617#4 -10891617#3 -10891617#2 -10891617#1 -10891617#0 -10885963#1 10885963#1"/>
    </vehicle>
    <vehicle id="veh9" type="passenger" depart="133.27" departLane="best">
        <route edges="10885963#5 10886775#0 10886775#1 -10843909#2 -10843909#1 -10843909#0"/>
    </vehicle>
    <vehicle id="veh10" type="passenger" depart="148.08" departLane="best">
        <route edges="10885963#5 10886775#0 10886775#1 10886775#2 10886775#3 10886775#4"/>
    </vehicle>
    <vehicle id="veh11" type="passenger" depart="162.89" departLane="best">
        <route edges="10891617#3 10891617#4 -10886775#2 -10886775#1 -10886775#0 -10885963#5 -10890403"/>
    </vehicle>
    <vehicle id="veh12" type="passenger" depart="177.70" departLane="best">
        <route edges="-10846363#1 -10846363#0 -10885963#5 -10885963#4 -10846208"/>
    </vehicle>
    <vehicle id="veh13" type="passenger" depart="192.50" departLane="best">
        <route edges="10886775#3 -10886775#3 -10886775#2 10843909#3 10843909#4 10885963#3"/>
    </vehicle>
    <vehicle id="veh14" type="passenger" depart="207.31" departLane="best">
        <route edges="10885963#5 10887764#0"/>
    </vehicle>
    <vehicle id="veh15" type="passenger" depart="222.12" departLane="best">
        <route edges="-10891617#0 10885963#2 10885963#3 10885963#4 10885963#5 10846363#0 10846363#1"/>
    </vehicle>
    <vehicle id="veh16" type="passenger" depart="236.93" departLane="best">
        <route edges="10888123#1 10843909#1 10843909#2 10843909#3 10891829#1 -10884901 10884901"/>
    </vehicle>
    <vehicle id="veh17" type="passenger" depart="251.74" departLane="best">
        <route edges="10846518 10890107#1 -10886775#3 -10886775#2 -10843909#2 -10843909#1 -10843909#0"/>
    </vehicle>
    <vehicle id="veh18" type="passenger" depart="266.54" departLane="best">
        <route edges="-10886775#4 -10886775#3 -10886775#2 -10886775#1 -10844412#0 -10888123#0"/>
    </vehicle>
    <vehicle id="veh19" type="passenger" depart="281.35" departLane="best">
        <route edges="-10846363#1 -10846363#0 -10885963#5 -10885963#4"/>
    </vehicle>
    <vehicle id="veh20" type="passenger" depart="296.16" departLane="best">
        <route edges="-10846363#1 -10846363#0 10886775#0 10886775#1 10886775#2 10886775#3 -10886775#3"/>
    </vehicle>
    <vehicle id="veh21" type="passenger" depart="310.97" departLane="best">
        <route edges="10844412#0 -10886775#0 -10885963#5 -10890403"/>
    </vehicle>
    <vehicle id="veh22" type="passenger" depart="325.78" departLane="best">
        <route edges="-10890107#1 -10890107#0 -10891617#2 -10891617#1 -10891617#0 -10885963#1"/>
    </vehicle>
    <vehicle id="veh23" type="passenger" depart="340.58" departLane="best">
        <route edges="-10887764#1 10886775#0 10886775#1 -10843909#2 10892128"/>
    </vehicle>
    <vehicle id="veh24" type="passenger" depart="355.39" departLane="best">
        <route edges="-10886775#1 -10886775#0 10887764#0"/>
    </vehicle>
    <vehicle id="veh25" type="passenger" depart="370.20" departLane="best">
        <route edges="-10886775#0 -10885963#5 -10885963#4 -10885963#3 -10885963#2 10891617#0 -10891617#0"/>
    </vehicle>
    <vehicle id="veh26" type="passenger" depart="385.01" departLane="best">
        <route edges="10843909#0 10843909#1 10843909#2 10886775#2 10886775#3 10886775#4"/>
    </vehicle>
    <vehicle id="veh27" type="passenger" depart="399.82" departLane="best">
        <route edges="-10886775#4 -10886775#3 -10886775#2 -10843909#2 -10843909#1 -10843909#0"/>
    </vehicle>
    <vehicle id="veh28" type="passenger" depart="414.62" departLane="best">
        <route edges="-10889617 10891617#2 10891617#3 10891617#4 -10886775#2 -10886775#1"/>
    </vehicle>
    <vehicle id="veh29" type="passenger" depart="429.43" departLane="best">
        <route edges="-10886775#4 -10886775#3 -10886775#2 -10843909#2 10892128"/>
    </vehicle>
    <vehicle id="veh30" type="passenger" depart="444.24" departLane="best">
        <route edges="10846208 -10885963#3 -10885963#2 10891617#0 10891617#1 10891617#2 -10891617#2"/>
    </vehicle>
    <vehicle id="veh31" type="passenger" depart="459.05" departLane="best">
        <route edges="10890403 10885963#5 10886775#0 10886775#1 -10843909#2 -10843909#1 10843909#1"/>
    </vehicle>
    <vehicle id="veh32" type="passenger" depart="473.86" departLane="best">
        <route edges="-10887764#1 -10885963#5"/>
    </vehicle>
    <vehicle id="veh33" type="passenger" depart="488.66" departLane="best">
        <route edges="10843909#0 10843909#1 10843909#2 -10886775#1"/>
    </vehicle>
    <vehicle id="veh34" type="passenger" depart="503.47" departLane="best">
        <route edges="10843909#0 10843909#1 10843909#2 10843909#3 10891829#1 10891829#2"/>
    </vehicle>
    <vehicle id="veh35" type="passenger" depart="518.28" departLane="best">
        <route edges="-10891617#3 -10891617#2 -10891617#1 -10891617#0 10885963#2 -10885963#2"/>
    </vehicle>
    <vehicle id="veh36" type="passenger" depart="533.09" departLane="best">
        <route edges="10891829#3 10890107#1 -10886775#3 -10886775#2 -10886775#1 -10886775#0 10846363#0"/>
    </vehicle>
    <vehicle id="veh37" type="passenger" depart="547.89" departLane="best">
        <route edges="-10846363#1 -10846363#0 10886775#0 10886775#1 -10843909#2 -10843909#1"/>
    </vehicle>
    <vehicle id="veh38" type="passenger" depart="562.70" departLane="best">
        <route edges="-10884901 -10891617#0 10885963#2 10885963#3 10885963#4 10885963#5"/>
    </vehicle>
    <vehicle id="veh39" type="passenger" depart="577.51" departLane="best">
        <route edges="10885963#3 -10885963#3 -10843909#4 -10891829#0"/>
    </vehicle>
    <vehicle id="veh40" type="passenger" depart="592.32" departLane="best">
        <route edges="-10846363#1 -10846363#0 -10885963#5 -10885963#4 -10885963#3 -10885963#2 10891617#0 10891617#1 -10891617#1"/>
    </vehicle>
    <vehicle id="veh41" type="passenger" depart="607.13" departLane="best">
        <route edges="10891829#3 10890107#1 -10886775#3 -10886775#2 -10886775#1 -10886775#0 10846363#0 10846363#1"/>
    </vehicle>
    <vehicle id="veh42" type="passenger" depart="621.93" departLane="best">
        <route edges="-10843909#2 10843909#2 -10886775#1 -10886775#0 10887764#0"/>
    </vehicle>
    <vehicle id="veh43" type="passenger" depart="636.74" departLane="best">
        <route edges="10846208 10885963#4 10885963#5 10846363#0 10846363#1"/>
    </vehicle>
    <vehicle id="veh44" type="passenger" depart="651.55" departLane="best">
        <route edges="-10887764#1 10886775#0 10886775#1"/>
    </vehicle>
    <vehicle id="veh45" type="passenger" depart="666.36" departLane="best">
        <route edges="-10885963#1 10885963#1 10891617#0 10884901 -10891829#1"/>
    </vehicle>
    <vehicle id="veh46" type="passenger" depart="681.17" departLane="best">
        <route edges="-10892128 10843909#2 10843909#3 10843909#4 -10885963#2 -10885963#1 10892677"/>
    </vehicle>
    <vehicle id="veh47" type="passenger" depart="695.97" departLane="best">
        <route edges="10890107#1 -10886775#3 -10886775#2 -10886775#1"/>
    </vehicle>
    <vehicle id="veh48" type="passenger" depart="710.78" departLane="best">
        <route edges="-10892677 -10885963#0"/>
    </vehicle>
    <vehicle id="veh49" type="passenger" depart="725.59" departLane="best">
        <route edges="10890403 10885963#5 10886775#0 10886775#1 10886775#2 -10891617#4 10891617#4"/>
    </vehicle>
    <vehicle id="veh50" type="passenger" depart="740.40" departLane="best">
        <route edges="10843909#2 10843909#3 10891829#1 -10884901"/>
    </vehicle>
    <vehicle id="veh51" type="passenger" depart="755.21" departLane="best">
        <route edges="10885963#0 10885963#1 10885963#2 10885963#3 10885963#4 10885963#5 10846363#0 10846363#1"/>
    </vehicle>
    <vehicle id="veh52" type="passenger" depart="770.01" departLane="best">
        <route edges="10885963#2 10885963#3 10885963#4 10885963#5 10846363#0 10846363#1"/>
    </vehicle>
    <vehicle id="veh53" type="passenger" depart="784.82" departLane="best">
        <route edges="-10843909#1 10843909#1 10843909#2 -10886775#1 -10886775#0 -10885963#5 -10890403"/>
    </vehicle>
    <vehicle id="veh54" type="passenger" depart="799.63" departLane="best">
        <route edges="-10843909#3 -10843909#2 10892128"/>
    </vehicle>
    <vehicle id="veh55" type="passenger" depart="814.44" departLane="best">
        <route edges="-10889617 10891617#2 10891617#3 10891617#4 -10886775#2 -10843909#2"/>
    </vehicle>
    <vehicle id="veh56" type="passenger" depart="829.25" departLane="best">
        <route edges="-10846363#1 -10846363#0 10886775#0 10886775#1 10843909#3 10843909#4"/>
    </vehicle>
    <vehicle id="veh57" type="passenger" depart="844.05" departLane="best">
        <route edges="-10846363#1 10888123#0"/>
    </vehicle>
    <vehicle id="veh58" type="passenger" depart="858.86" departLane="best">
        <route edges="10885963#0 10885963#1 10885963#2 10885963#3 -10846208"/>
    </vehicle>
    <vehicle id="veh59" type="passenger" depart="873.67" departLane="best">
        <route edges="-10892128 10843909#2 -10886775#1 -10886775#0 10846363#0 10846363#1"/>
    </vehicle>
    <vehicle id="veh60" type="passenger" depart="888.48" departLane="best">
        <route edges="-10887764#1 10886775#0 10886775#1 10886775#2 -10891617#4 10891617#4"/>
    </vehicle>
    <vehicle id="veh61" type="passenger" depart="903.29" departLane="best">
        <route edges="-10891829#0 -10886775#0 -10885963#5 -10885963#4 -10885963#3 -10885963#2 -10885963#1"/>
    </vehicle>
    <vehicle id="veh62" type="passenger" depart="918.09" departLane="best">
        <route edges="-10892677 10885963#1 10885963#2 10885963#3 10885963#4 10885963#5 10887764#0"/>
    </vehicle>
    <vehicle id="veh63" type="passenger" depart="932.90" departLane="best">
        <route edges="-10886775#4 -10890107#1 -10890107#0"/>
    </vehicle>
    <vehicle id="veh64" type="passenger" depart="947.71" departLane="best">
        <route edges="-10891829#2 -10891829#1 -10843909#3 -10886775#1 -10886775#0 10846363#0"/>
    </vehicle>
    <vehicle id="veh65" type="passenger" depart="962.52" departLane="best">
        <route edges="-10886775#4 -10886775#3 -10886775#2 10843909#3 10843909#4 -10885963#2"/>
    </vehicle>
    <vehicle id="veh66" type="passenger" depart="977.33" departLane="best">
        <route edges="-10846363#1 -10846363#0 10886775#0"/>
    </vehicle>
    <vehicle id="veh67" type="passenger" depart="992.13" departLane="best">
        <route edges="-10886775#4 -10886775#3 -10891617#4 10891829#3"/>
    </vehicle>
    <vehicle id="veh68" type="passenger" depart="1006.94" departLane="best">
        <route edges="10888123#0 10844412#0 10886775#1 10843909#3 -10843909#3"/>
    </vehicle>
    <vehicle id="veh69" type="passenger" depart="1021.75" departLane="best">
        <route edges="-10886775#4 -10886775#3 -10886775#2 -10886775#1 -10886775#0 -10885963#5 -10885963#4 -10846208"/>
    </vehicle>
    <vehicle id="veh70" type="passenger" depart="1036.56" departLane="best">
        <route edges="10891617#1 10891617#2 10846518"/>
    </vehicle>
    <vehicle id="veh71" type="passenger" depart="1051.37" departLane="best">
        <route edges="-10892128 10843909#2 10886775#2 -10891617#4 -10891617#3 -10891617#2 10889617"/>
    </vehicle>
    <vehicle id="veh72" type="passenger" depart="1066.17" departLane="best">
        <route edges="10885963#5 -10885963#5 -10885963#4 -10885963#3 -10885963#2 -10885963#1 -10885963#0"/>
    </vehicle>
    <vehicle id="veh73" type="passenger" depart="1080.98" departLane="best">
        <route edges="-10846363#1 -10846363#0 10886775#0 10886775#1 10843909#3 10891829#1 -10891829#1"/>
    </vehicle>
    <vehicle id="veh74" type="passenger" depart="1095.79" departLane="best">
        <route edges="10885963#0 10885963#1 10891617#0 10891617#1 10891617#2 10891617#3 10891617#4 10886775#3 10886775#4"/>
    </vehicle>
    <vehicle id="veh75" type="passenger" depart="1110.60" departLane="best">
        <route edges="10891829#2 -10891617#3 -10891617#2 -10891617#1 -10891617#0 10885963#2 10885963#3 -10846208"/>
    </vehicle>
    <vehicle id="veh76" type="passenger" depart="1125.41" departLane="best">
        <route edges="-10891617#3 -10891617#2 -10891617#1 -10891617#0 10885963#2 10885963#3 10885963#4 -10890403"/>
    </vehicle>
    <vehicle id="veh77" type="passenger" depart="1140.21" departLane="best">
        <route edges="-10887764#1 10886775#0 10886775#1 -10843909#2 10892128"/>
    </vehicle>
    <vehicle id="veh78" type="passenger" depart="1155.02" departLane="best">
        <route edges="10843909#0 10843909#1 -10843909#1"/>
    </vehicle>
    <vehicle id="veh79" type="passenger" depart="1169.83" departLane="best">
        <route edges="10891617#4 -10886775#2 -10843909#2 10892128"/>
    </vehicle>
    <vehicle id="veh80" type="passenger" depart="1184.64" departLane="best">
        <route edges="10886775#3 -10886775#3 -10891617#4 -10891617#3 -10891617#2 -10891617#1 -10891617#0 -10885963#1 -10885963#0"/>
    </vehicle>
    <vehicle id="veh81" type="passenger" depart="1199.45" departLane="best">
        <route edges="-10892128 10843909#2 10843909#3 10843909#4 -10885963#2"/>
    </vehicle>
    <vehicle id="veh82" type="passenger" depart="1214.25" departLane="best">
        <route edges="-10887764#1 -10885963#5 -10885963#4 -10885963#3 -10885963#2 10891617#0 10891617#1 10889617"/>
    </vehicle>
    <vehicle id="veh83" type="passenger" depart="1229.06" departLane="best">
        <route edges="-10892128 10843909#2 10843909#3 -10891829#0"/>
    </vehicle>
    <vehicle id="veh84" type="passenger" depart="1243.87" departLane="best">
        <route edges="10891617#3 -10891617#3 -10891617#2 -10891617#1 -10891617#0 -10885963#1 10892677"/>
    </vehicle>
    <vehicle id="veh85" type="passenger" depart="1258.68" departLane="best">
        <route edges="10843909#0 10843909#1 10843909#2 -10886775#1 -10886775#0 10887764#0"/>
    </vehicle>
    <vehicle id="veh86" type="passenger" depart="1273.49" departLane="best">
        <route edges="-10892677 10885963#1 10885963#2 10885963#3 10885963#4 10885963#5 10887764#0"/>
    </vehicle>
    <vehicle id="veh87" type="passenger" depart="1288.29" departLane="best">
        <route edges="-10846363#1 -10846363#0 -10885963#5 -10885963#4 -10885963#3 -10885963#2 -10885963#1 10885963#1"/>
    </vehicle>
    <vehicle id="veh88" type="passenger" depart="1303.10" departLane="best">
        <route edges="-10892677 10885963#1 10891617#0 10891617#1 10891617#2"/>
    </vehicle>
    <vehicle id="veh89" type="passenger" depart="1317.91" departLane="best">
        <route edges="-10886775#0 -10885963#5 -10885963#4 -10885963#3 -10885963#2 -10885963#1 10892677"/>
    </vehicle>
    <vehicle id="veh90" type="passenger" depart="1332.72" departLane="best">
        <route edges="-10846363#1 -10846363#0 -10885963#5 -10885963#4 -10885963#3 -10885963#2 -10885963#1 -10885963#0"/>
    </vehicle>
    <vehicle id="veh91" type="passenger" depart="1347.53" departLane="best">
        <route edges="10843909#1 10843909#2 10886775#2 10886775#3 10886775#4"/>
    </vehicle>
    <vehicle id="veh92" type="passenger" depart="1362.33" departLane="best">
        <route edges="-10886775#4 -10886775#3 -10886775#2 -10886775#1 -10886775#0 -10885963#5 -10885963#4 -10846208"/>
    </vehicle>
    <vehicle id="veh93" type="passenger" depart="1377.14" departLane="best">
        <route edges="10843909#1 10843909#2 -10886775#1 -10886775#0 -10885963#5 -10885963#4 10885963#4"/>
    </vehicle>
    <vehicle id="veh94" type="passenger" depart="1391.95" departLane="best">
        <route edges="-10891829#0 -10886775#0 -10885963#5 -10885963#4 -10885963#3 -10885963#2 -10885963#1 10885963#1"/>
    </vehicle>
    <vehicle id="veh95" type="passenger" depart="1406.76" departLane="best">
        <route edges="-10892677 10885963#1 10885963#2 -10843909#4 -10843909#3 -10843909#2 10892128"/>
    </vehicle>
    <vehicle id="veh96" type="passenger" depart="1421.57" departLane="best">
        <route edges="-10886775#4 -10886775#3 -10886775#2 -10886775#1 -10886775#0 10887764#0"/>
    </vehicle>
    <vehicle id="veh97" type="passenger" depart="1436.37" departLane="best">
        <route edges="-10886775#4 -10886775#3 -10891617#4 -10891617#3 -10891617#2"/>
    </vehicle>
    <vehicle id="veh98" type="passenger" depart="1451.18" departLane="best">
        <route edges="10846208 10885963#4 10885963#5 10886775#0 10886775#1 -10843909#2 -10843909#1 -10888123#1"/>
    </vehicle>
    <vehicle id="veh99" type="passenger" depart="1465.99" departLane="best">
        <route edges="-10889617 -10891617#1 -10891617#0 10885963#2 10885963#3 10885963#4 10885963#5 10887764#0"/>
    </vehicle>
    <vehicle id="veh100" type="passenger" depart="1480.80" departLane="best">
        <route edges="-10846363#1 10888123#0 10888123#1 10843909#1"/>
    </vehicle>
    <vehicle id="veh101" type="passenger" depart="1495.60" departLane="best">
        <route edges="10891829#3 -10890107#0 -10891617#2 -10891617#1 -10891617#0 -10885963#1 10892677"/>
    </vehicle>
    <vehicle id="veh102" type="passenger" depart="1510.41" departLane="best">
        <route edges="-10846363#1 -10846363#0 -10885963#5 -10885963#4 -10885963#3 -10885963#2"/>
    </vehicle>
    <vehicle id="veh103" type="passenger" depart="1525.22" departLane="best">
        <route edges="-10887764#1 10886775#0 10886775#1 -10843909#2 10892128"/>
    </vehicle>
    <vehicle id="veh104" type="passenger" depart="1540.03" departLane="best">
        <route edges="10890403 10885963#5 10886775#0 10886775#1 10886775#2 -10891617#4 10891617#4"/>
    </vehicle>
    <vehicle id="veh105" type="passenger" depart="1554.84" departLane="best">
        <route edges="-10890107#1 -10890107#0 -10891617#2 -10891617#1 -10891617#0 -10885963#1 -10885963#0"/>
    </vehicle>
    <vehicle id="veh106" type="passenger" depart="1569.64" departLane="best">
        <route edges="10886775#2 10886775#3 10886775#4"/>
    </vehicle>
    <vehicle id="veh107" type="passenger" depart="1584.45" departLane="best">
        <route edges="10843909#3 10843909#4 -10885963#2 -10885963#1 10892677"/>
    </vehicle>
    <vehicle id="veh108" type="passenger" depart="1599.26" departLane="best">
        <route edges="10846208 10885963#4 10885963#5 10886775#0 10886775#1 -10843909#2 -10843909#1 -10843909#0"/>
    </vehicle>
    <vehicle id="veh109" type="passenger" depart="1614.07" departLane="best">
        <route edges="10846208 10885963#4 10885963#5 10886775#0 10886775#1 -10843909#2 10892128"/>
    </vehicle>
    <vehicle id="veh110" type="passenger" depart="1628.88" departLane="best">
        <route edges="-10884901 -10891617#0 10885963#2 10885963#3 10885963#4 10885963#5 10846363#0 10846363#1"/>
    </vehicle>
    <vehicle id="veh111" type="passenger" depart="1643.68" departLane="best">
        <route edges="-10887764#1 -10885963#5 -10885963#4 -10885963#3 10885963#3"/>
    </vehicle>
    <vehicle id="veh112" type="passenger" depart="1658.49" departLane="best">
        <route edges="10884901 -10884901 -10891617#0 -10885963#1 -10885963#0"/>
    </vehicle>
    <vehicle id="veh113" type="passenger" depart="1673.30" departLane="best">
        <route edges="10886775#3 -10886775#3 -10886775#2 -10886775#1 -10844412#0"/>
    </vehicle>
    <vehicle id="veh114" type="passenger" depart="1688.11" departLane="best">
        <route edges="10885963#0 10885963#1 10885963#2 10885963#3 10885963#4 10885963#5 10846363#0 10846363#1"/>
    </vehicle>
    <vehicle id="veh115" type="passenger" depart="1702.92" departLane="best">
        <route edges="-10891829#1 -10843909#3 -10843909#2 -10843909#1 -10843909#0"/>
    </vehicle>
    <vehicle id="veh116" type="passenger" depart="1717.72" departLane="best">
        <route edges="-10846363#1 -10846363#0 10886775#0 10886775#1 10843909#3 10891829#1"/>
    </vehicle>
    <vehicle id="veh117" type="passenger" depart="1732.53" departLane="best">
        <route edges="10890403 10885963#5 10846363#0 10846363#1"/>
    </vehicle>
    <vehicle id="veh118" type="passenger" depart="1747.34" departLane="best">
        <route edges="10890403 -10885963#4 -10885963#3 -10885963#2 -10885963#1"/>
    </vehicle>
    <vehicle id="veh119" type="passenger" depart="1762.15" departLane="best">
        <route edges="-10887764#1 -10885963#5 -10885963#4 -10846208"/>
    </vehicle>
    <vehicle id="veh120" type="passenger" depart="1776.96" departLane="best">
        <route edges="10885963#2 -10843909#4 10891829#1"/>
    </vehicle>
    <vehicle id="veh121" type="passenger" depart="1791.76" departLane="best">
        <route edges="-10891617#3 -10891617#2 -10891617#1 -10891617#0 10885963#2 10885963#3 10885963#4 10885963#5"/>
    </vehicle>
    <vehicle id="veh122" type="passenger" depart="1806.57" departLane="best">
        <route edges="-10885963#5 10885963#5 10886775#0 10886775#1 -10843909#2 10892128"/>
    </vehicle>
    <vehicle id="veh123" type="passenger" depart="1821.38" departLane="best">
        <route edges="10888123#1 10843909#1 10843909#2 10843909#3 10843909#4 -10885963#2 -10885963#1 10892677"/>
    </vehicle>
    <vehicle id="veh124" type="passenger" depart="1836.19" departLane="best">
        <route edges="-10843909#3 -10886775#1 -10886775#0 10887764#0"/>
    </vehicle>
    <vehicle id="veh125" type="passenger" depart="1851.00" departLane="best">
        <route edges="-10889617 10891617#2 10891617#3 10891617#4 -10886775#2 -10843909#2 10892128"/>
    </vehicle>
    <vehicle id="veh126" type="passenger" depart="1865.80" departLane="best">
        <route edges="10885963#4 -10885963#4 -10885963#3 -10885963#2 10891617#0 10891617#1 10891617#2 10891617#3"/>
    </vehicle>
    <vehicle id="veh127" type="passenger" depart="1880.61" departLane="best">
        <route edges="-10886775#4 -10886775#3 -10891617#4 -10891617#3 -10891617#2 10889617"/>
    </vehicle>
    <vehicle id="veh128" type="passenger" depart="1895.42" departLane="best">
        <route edges="-10892128 -10843909#1 -10888123#1"/>
    </vehicle>
    <vehicle id="veh129" type="passenger" depart="1910.23" departLane="best">
        <route edges="-10843909#3 10843909#3 10843909#4 -10885963#2 -10885963#1 -10885963#0"/>
    </vehicle>
    <vehicle id="veh130" type="passenger" depart="1925.04" departLane="best">
        <route edges="10844412#1 10891829#1 10891829#2 -10891617#3"/>
    </vehicle>
    <vehicle id="veh131" type="passenger" depart="1939.84" departLane="best">
        <route edges="10891829#1 -10891829#1 -10843909#3 -10886775#1 -10886775#0 10846363#0 10846363#1"/>
    </vehicle>
    <vehicle id="veh132" type="passenger" depart="1954.65" departLane="best">
        <route edges="10891617#4 -10891617#4 -10891617#3 -10891617#2 -10891617#1 -10891617#0 -10885963#1 -10885963#0"/>
    </vehicle>
    <vehicle id="veh133" type="passenger" depart="1969.46" departLane="best">
        <route edges="10891617#3 10891617#4 -10886775#2 -10886775#1"/>
    </vehicle>
    <vehicle id="veh134" type="passenger" depart="1984.27" departLane="best">
        <route edges="10885963#0 10885963#1 10891617#0 10891617#1 10891617#2 10846518 -10890107#0"/>
    </vehicle>
    <vehicle id="veh135" type="passenger" depart="1999.08" departLane="best">
        <route edges="10843909#2 -10886775#1 -10886775#0 10846363#0"/>
    </vehicle>
    <vehicle id="veh136" type="passenger" depart="2013.88" departLane="best">
        <route edges="-10887764#1 10886775#0 10886775#1 10886775#2 10886775#3 10886775#4"/>
    </vehicle>
    <vehicle id="veh137" type="passenger" depart="2028.69" departLane="best">
        <route edges="-10843909#1 10843909#1 10892128"/>
    </vehicle>
    <vehicle id="veh138" type="passenger" depart="2043.50" departLane="best">
        <route edges="-10892677 10885963#1 10885963#2 10885963#3 10885963#4 10885963#5 10887764#0"/>
    </vehicle>
    <vehicle id="veh139" type="passenger" depart="2058.31" departLane="best">
        <route edges="10885963#0 10885963#1 10891617#0 10891617#1 10891617#2 10891617#3 10891617#4 10886775#3 10886775#4"/>
    </vehicle>
    <vehicle id="veh140" type="passenger" depart="2073.12" departLane="best">
        <route edges="-10890107#1 -10891829#3 -10891829#2 -10891829#1 -10843909#3"/>
    </vehicle>
    <vehicle id="veh141" type="passenger" depart="2087.92" departLane="best">
        <route edges="10884901 -10891829#1 -10843909#3 -10843909#2 -10843909#1 -10888123#1"/>
    </vehicle>
    <vehicle id="veh142" type="passenger" depart="2102.73" departLane="best">
        <route edges="-10891617#3 10891617#3 10891617#4 -10886775#2 -10886775#1 -10844412#0 -10888123#0"/>
    </vehicle>
    <vehicle id="veh143" type="passenger" depart="2117.54" departLane="best">
        <route edges="-10885963#2 10885963#2 -10843909#4 -10891829#0"/>
    </vehicle>
    <vehicle id="veh144" type="passenger" depart="2132.35" departLane="best">
        <route edges="10891617#1 10891617#2 10891617#3 10891617#4 10886775#3 10886775#4"/>
    </vehicle>
    <vehicle id="veh145" type="passenger" depart="2147.16" departLane="best">
        <route edges="-10888123#1 -10888123#0 10846363#1"/>
    </vehicle>
    <vehicle id="veh146" type="passenger" depart="2161.96" departLane="best">
        <route edges="10846208 10885963#4 10885963#5 10886775#0 10886775#1 -10843909#2 10843909#2"/>
    </vehicle>
    <vehicle id="veh147" type="passenger" depart="2176.77" departLane="best">
        <route edges="-10891829#2 -10891829#1 10843909#4 -10885963#2"/>
    </vehicle>
    <vehicle id="veh148" type="passenger" depart="2191.58" departLane="best">
        <route edges="10885963#3 -10885963#3 -10885963#2 -10885963#1 -10885963#0"/>
    </vehicle>
    <vehicle id="veh149" type="passenger" depart="2206.39" departLane="best">
        <route edges="-10846363#1 -10846363#0 10846363#0"/>
    </vehicle>
    <vehicle id="veh150" type="passenger" depart="2221.20" departLane="best">
        <route edges="10844412#0 -10886775#0 -10885963#5 -10890403"/>
    </vehicle>
    <vehicle id="veh151" type="passenger" depart="2236.00" departLane="best">
        <route edges="10886775#0 -10886775#0 10887764#0"/>
    </vehicle>
    <vehicle id="veh152" type="passenger" depart="2250.81" departLane="best">
        <route edges="-10886775#4 -10886775#3 -10886775#2 -10843909#2 -10843909#1 -10843909#0"/>
    </vehicle>
    <vehicle id="veh153" type="passenger" depart="2265.62" departLane="best">
        <route edges="-10887764#1 10886775#0 10886775#1 10843909#3"/>
    </vehicle>
    <vehicle id="veh154" type="passenger" depart="2280.43" departLane="best">
        <route edges="-10891617#4 10891617#4 -10886775#2 -10886775#1 -10886775#0 10886775#0"/>
    </vehicle>
    <vehicle id="veh155" type="passenger" depart="2295.24" departLane="best">
        <route edges="-10886775#3 10886775#3 10886775#4"/>
    </vehicle>
    <vehicle id="veh156" type="passenger" depart="2310.04" departLane="best">
        <route edges="-10892128 10843909#2 -10886775#1 -10886775#0 -10885963#5"/>
    </vehicle>
    <vehicle id="veh157" type="passenger" depart="2324.85" departLane="best">
        <route edges="10846208 10885963#4 10885963#5 10886775#0 10886775#1 -10843909#2 -10843909#1 -10843909#0"/>
    </vehicle>
    <vehicle id="veh158" type="passenger" depart="2339.66" departLane="best">